/*---------------------------------------------------------------------------*\
| =========                 |                                                 |
| \\      /  F ield         | OpenFOAM: The Open Source CFD Toolbox           |
|  \\    /   O peration     | Version:  v1612+                                |
|   \\  /    A nd           | Web:      www.OpenFOAM.com                      |
|    \\/     M anipulation  |                                                 |
\*---------------------------------------------------------------------------*/
Build  : v1612+
Exec   : simpleFoam -parallel
Date   : Jun 24 2025
Time   : 13:53:47
Host   : "calvados"
PID    : 448913
Case   : /home/harujane/OpenFOAM/harujane-v1612+/run/0606/BH0018_ICA_L_tube
nProcs : 36
Slaves : 
35
(
"calvados.448914"
"calvados.448915"
"calvados.448916"
"calvados.448917"
"calvados.448918"
"calvados.448919"
"calvados.448920"
"calvados.448921"
"calvados.448922"
"calvados.448923"
"calvados.448924"
"calvados.448925"
"calvados.448926"
"calvados.448927"
"calvados.448928"
"calvados.448929"
"calvados.448930"
"calvados.448931"
"calvados.448932"
"calvados.448933"
"calvados.448934"
"calvados.448935"
"calvados.448936"
"calvados.448937"
"calvados.448938"
"calvados.448939"
"calvados.448940"
"calvados.448941"
"calvados.448942"
"calvados.448944"
"calvados.448945"
"calvados.448946"
"calvados.448947"
"calvados.448948"
"calvados.448950"
)

Pstream initialized with:
    floatTransfer      : 0
    nProcsSimpleSum    : 0
    commsType          : nonBlocking
    polling iterations : 0
sigFpe : Enabling floating point exception trapping (FOAM_SIGFPE).
fileModificationChecking : Monitoring run-time modified files using timeStampMaster (fileModificationSkew 10)
allowSystemOperations : Allowing user-supplied system call operations

// * * * * * * * * * * * * * * * * * * * * * * * * * * * * * * * * * * * * * //
Create time

Create mesh for time = 0


SIMPLE: convergence criteria
    field p	 tolerance 0.001
    field U	 tolerance 0.001
    field "(k|epsilon|omega|f|v2)"	 tolerance 0.001

Reading field p

Reading field U

Reading/calculating face flux field phi

Selecting incompressible transport model Newtonian
Selecting turbulence model type laminar
Selecting laminar stress model Stokes
No MRF models present

No finite volume options present


Starting time loop

wallShearStress wallShearStress:
    processing all wall patches

Time = 1

smoothSolver:  Solving for Ux, Initial residual = 1, Final residual = 9.44541e-06, No Iterations 48
smoothSolver:  Solving for Uy, Initial residual = 1, Final residual = 9.48134e-06, No Iterations 48
smoothSolver:  Solving for Uz, Initial residual = 1, Final residual = 9.77106e-06, No Iterations 48
GAMG:  Solving for p, Initial residual = 1, Final residual = 0.0436809, No Iterations 9
time step continuity errors : sum local = 0.286007, global = -0.000934026, cumulative = -0.000934026
ExecutionTime = 1.03 s  ClockTime = 4 s

Time = 2

smoothSolver:  Solving for Ux, Initial residual = 0.165879, Final residual = 9.63151e-06, No Iterations 11
smoothSolver:  Solving for Uy, Initial residual = 0.186502, Final residual = 5.35152e-06, No Iterations 12
smoothSolver:  Solving for Uz, Initial residual = 0.153594, Final residual = 8.72802e-06, No Iterations 11
GAMG:  Solving for p, Initial residual = 0.157688, Final residual = 0.0065687, No Iterations 2
time step continuity errors : sum local = 57.623, global = 0.364639, cumulative = 0.363705
ExecutionTime = 1.11 s  ClockTime = 5 s

Time = 3

smoothSolver:  Solving for Ux, Initial residual = 0.100009, Final residual = 5.70503e-06, No Iterations 11
smoothSolver:  Solving for Uy, Initial residual = 0.112022, Final residual = 6.17881e-06, No Iterations 11
smoothSolver:  Solving for Uz, Initial residual = 0.0884598, Final residual = 9.74184e-06, No Iterations 10
GAMG:  Solving for p, Initial residual = 0.0757534, Final residual = 0.00100323, No Iterations 3
time step continuity errors : sum local = 8.93337, global = -0.0671051, cumulative = 0.2966
ExecutionTime = 1.19 s  ClockTime = 5 s

Time = 4

smoothSolver:  Solving for Ux, Initial residual = 0.0660557, Final residual = 6.91793e-06, No Iterations 10
smoothSolver:  Solving for Uy, Initial residual = 0.0742465, Final residual = 7.54512e-06, No Iterations 10
smoothSolver:  Solving for Uz, Initial residual = 0.0590396, Final residual = 5.47638e-06, No Iterations 10
GAMG:  Solving for p, Initial residual = 0.113837, Final residual = 0.00478828, No Iterations 2
time step continuity errors : sum local = 17.8704, global = -0.0741291, cumulative = 0.22247
ExecutionTime = 1.26 s  ClockTime = 5 s

Time = 5

smoothSolver:  Solving for Ux, Initial residual = 0.0385238, Final residual = 8.63447e-06, No Iterations 9
smoothSolver:  Solving for Uy, Initial residual = 0.044047, Final residual = 9.63477e-06, No Iterations 9
smoothSolver:  Solving for Uz, Initial residual = 0.0346956, Final residual = 6.86214e-06, No Iterations 9
GAMG:  Solving for p, Initial residual = 0.0688376, Final residual = 0.00142846, No Iterations 2
time step continuity errors : sum local = 5.41582, global = -0.0894717, cumulative = 0.132999
ExecutionTime = 1.34 s  ClockTime = 5 s

Time = 6

smoothSolver:  Solving for Ux, Initial residual = 0.0251436, Final residual = 5.8599e-06, No Iterations 9
smoothSolver:  Solving for Uy, Initial residual = 0.0289365, Final residual = 6.63107e-06, No Iterations 9
smoothSolver:  Solving for Uz, Initial residual = 0.0225967, Final residual = 4.80241e-06, No Iterations 9
GAMG:  Solving for p, Initial residual = 0.0430799, Final residual = 0.000951926, No Iterations 2
time step continuity errors : sum local = 3.77886, global = -0.0369283, cumulative = 0.0960705
ExecutionTime = 1.4 s  ClockTime = 6 s

Time = 7

smoothSolver:  Solving for Ux, Initial residual = 0.0186767, Final residual = 8.78819e-06, No Iterations 8
smoothSolver:  Solving for Uy, Initial residual = 0.0217, Final residual = 9.9793e-06, No Iterations 8
smoothSolver:  Solving for Uz, Initial residual = 0.0169874, Final residual = 7.50557e-06, No Iterations 8
GAMG:  Solving for p, Initial residual = 0.0343731, Final residual = 0.00124397, No Iterations 2
time step continuity errors : sum local = 4.34341, global = 0.00926799, cumulative = 0.105338
ExecutionTime = 1.47 s  ClockTime = 6 s

Time = 8

smoothSolver:  Solving for Ux, Initial residual = 0.0152072, Final residual = 6.50891e-06, No Iterations 8
smoothSolver:  Solving for Uy, Initial residual = 0.0178083, Final residual = 7.29563e-06, No Iterations 8
smoothSolver:  Solving for Uz, Initial residual = 0.0142304, Final residual = 5.71211e-06, No Iterations 8
GAMG:  Solving for p, Initial residual = 0.0336573, Final residual = 0.00123551, No Iterations 2
time step continuity errors : sum local = 3.27796, global = 0.0179427, cumulative = 0.123281
ExecutionTime = 1.54 s  ClockTime = 6 s

Time = 9

smoothSolver:  Solving for Ux, Initial residual = 0.0121992, Final residual = 4.97423e-06, No Iterations 8
smoothSolver:  Solving for Uy, Initial residual = 0.0143464, Final residual = 5.59867e-06, No Iterations 8
smoothSolver:  Solving for Uz, Initial residual = 0.0115724, Final residual = 9.65196e-06, No Iterations 7
GAMG:  Solving for p, Initial residual = 0.0316398, Final residual = 0.000969066, No Iterations 2
time step continuity errors : sum local = 2.06959, global = 0.0164489, cumulative = 0.13973
ExecutionTime = 1.6 s  ClockTime = 6 s

Time = 10

smoothSolver:  Solving for Ux, Initial residual = 0.00987126, Final residual = 8.6352e-06, No Iterations 7
smoothSolver:  Solving for Uy, Initial residual = 0.0116446, Final residual = 9.98347e-06, No Iterations 7
smoothSolver:  Solving for Uz, Initial residual = 0.00940139, Final residual = 7.68527e-06, No Iterations 7
GAMG:  Solving for p, Initial residual = 0.0277369, Final residual = 0.000611637, No Iterations 2
time step continuity errors : sum local = 1.15305, global = 0.0147812, cumulative = 0.154511
ExecutionTime = 1.66 s  ClockTime = 7 s

Time = 11

smoothSolver:  Solving for Ux, Initial residual = 0.00827437, Final residual = 7.09521e-06, No Iterations 7
smoothSolver:  Solving for Uy, Initial residual = 0.00978908, Final residual = 8.37025e-06, No Iterations 7
smoothSolver:  Solving for Uz, Initial residual = 0.00788994, Final residual = 6.44171e-06, No Iterations 7
GAMG:  Solving for p, Initial residual = 0.023128, Final residual = 0.000403897, No Iterations 2
time step continuity errors : sum local = 0.723661, global = 0.0179324, cumulative = 0.172444
ExecutionTime = 1.71 s  ClockTime = 7 s

Time = 12

smoothSolver:  Solving for Ux, Initial residual = 0.00719966, Final residual = 5.98256e-06, No Iterations 7
smoothSolver:  Solving for Uy, Initial residual = 0.00858759, Final residual = 7.09775e-06, No Iterations 7
smoothSolver:  Solving for Uz, Initial residual = 0.00694914, Final residual = 5.59939e-06, No Iterations 7
GAMG:  Solving for p, Initial residual = 0.0189929, Final residual = 0.000405298, No Iterations 2
time step continuity errors : sum local = 0.719744, global = 0.0148852, cumulative = 0.187329
ExecutionTime = 1.78 s  ClockTime = 7 s

Time = 13

smoothSolver:  Solving for Ux, Initial residual = 0.00648888, Final residual = 5.16334e-06, No Iterations 7
smoothSolver:  Solving for Uy, Initial residual = 0.00778464, Final residual = 6.10089e-06, No Iterations 7
smoothSolver:  Solving for Uz, Initial residual = 0.00632403, Final residual = 4.94741e-06, No Iterations 7
GAMG:  Solving for p, Initial residual = 0.0159796, Final residual = 0.000374958, No Iterations 2
time step continuity errors : sum local = 0.662246, global = 0.0113002, cumulative = 0.198629
ExecutionTime = 1.85 s  ClockTime = 7 s

Time = 14

smoothSolver:  Solving for Ux, Initial residual = 0.00594619, Final residual = 4.5523e-06, No Iterations 7
smoothSolver:  Solving for Uy, Initial residual = 0.00716324, Final residual = 5.38317e-06, No Iterations 7
smoothSolver:  Solving for Uz, Initial residual = 0.00583603, Final residual = 9.95982e-06, No Iterations 6
GAMG:  Solving for p, Initial residual = 0.0137522, Final residual = 0.000321121, No Iterations 2
time step continuity errors : sum local = 0.565024, global = 0.00839349, cumulative = 0.207023
ExecutionTime = 1.93 s  ClockTime = 8 s

Time = 15

smoothSolver:  Solving for Ux, Initial residual = 0.00551416, Final residual = 9.27974e-06, No Iterations 6
smoothSolver:  Solving for Uy, Initial residual = 0.00666607, Final residual = 4.87922e-06, No Iterations 7
smoothSolver:  Solving for Uz, Initial residual = 0.00543911, Final residual = 9.01701e-06, No Iterations 6
GAMG:  Solving for p, Initial residual = 0.0120373, Final residual = 0.000369088, No Iterations 2
time step continuity errors : sum local = 0.648939, global = 0.00533151, cumulative = 0.212354
ExecutionTime = 2 s  ClockTime = 8 s

Time = 16

smoothSolver:  Solving for Ux, Initial residual = 0.00520365, Final residual = 8.52676e-06, No Iterations 6
smoothSolver:  Solving for Uy, Initial residual = 0.00630512, Final residual = 4.51538e-06, No Iterations 7
smoothSolver:  Solving for Uz, Initial residual = 0.00514905, Final residual = 8.25272e-06, No Iterations 6
GAMG:  Solving for p, Initial residual = 0.0108882, Final residual = 0.000279388, No Iterations 2
time step continuity errors : sum local = 0.484821, global = 0.00368187, cumulative = 0.216036
ExecutionTime = 2.05 s  ClockTime = 8 s

Time = 17

smoothSolver:  Solving for Ux, Initial residual = 0.00491311, Final residual = 7.93787e-06, No Iterations 6
smoothSolver:  Solving for Uy, Initial residual = 0.0059657, Final residual = 9.61234e-06, No Iterations 6
smoothSolver:  Solving for Uz, Initial residual = 0.00487812, Final residual = 7.67077e-06, No Iterations 6
GAMG:  Solving for p, Initial residual = 0.00985661, Final residual = 0.000278873, No Iterations 2
time step continuity errors : sum local = 0.484431, global = 0.00358306, cumulative = 0.219619
ExecutionTime = 2.12 s  ClockTime = 8 s

Time = 18

smoothSolver:  Solving for Ux, Initial residual = 0.00470563, Final residual = 7.45807e-06, No Iterations 6
smoothSolver:  Solving for Uy, Initial residual = 0.00572153, Final residual = 9.02603e-06, No Iterations 6
smoothSolver:  Solving for Uz, Initial residual = 0.00468167, Final residual = 7.23136e-06, No Iterations 6
GAMG:  Solving for p, Initial residual = 0.00904404, Final residual = 0.000270095, No Iterations 2
time step continuity errors : sum local = 0.469426, global = 0.0039365, cumulative = 0.223555
ExecutionTime = 2.2 s  ClockTime = 9 s

Time = 19

smoothSolver:  Solving for Ux, Initial residual = 0.00453285, Final residual = 7.06225e-06, No Iterations 6
smoothSolver:  Solving for Uy, Initial residual = 0.00551495, Final residual = 8.51438e-06, No Iterations 6
smoothSolver:  Solving for Uz, Initial residual = 0.00451924, Final residual = 6.87991e-06, No Iterations 6
GAMG:  Solving for p, Initial residual = 0.0083869, Final residual = 0.000260976, No Iterations 2
time step continuity errors : sum local = 0.453976, global = 0.00474571, cumulative = 0.228301
ExecutionTime = 2.27 s  ClockTime = 9 s

Time = 20

smoothSolver:  Solving for Ux, Initial residual = 0.00438864, Final residual = 6.73633e-06, No Iterations 6
smoothSolver:  Solving for Uy, Initial residual = 0.00533733, Final residual = 8.08241e-06, No Iterations 6
smoothSolver:  Solving for Uz, Initial residual = 0.0043822, Final residual = 6.58357e-06, No Iterations 6
GAMG:  Solving for p, Initial residual = 0.00785535, Final residual = 0.000298343, No Iterations 2
time step continuity errors : sum local = 0.519256, global = 0.00442393, cumulative = 0.232725
ExecutionTime = 2.35 s  ClockTime = 9 s

Time = 21

smoothSolver:  Solving for Ux, Initial residual = 0.00427892, Final residual = 6.46648e-06, No Iterations 6
smoothSolver:  Solving for Uy, Initial residual = 0.00519974, Final residual = 7.72568e-06, No Iterations 6
smoothSolver:  Solving for Uz, Initial residual = 0.00427585, Final residual = 6.32569e-06, No Iterations 6
GAMG:  Solving for p, Initial residual = 0.00751176, Final residual = 0.000225059, No Iterations 2
time step continuity errors : sum local = 0.387228, global = 0.0038333, cumulative = 0.236558
ExecutionTime = 2.42 s  ClockTime = 9 s

Time = 22

smoothSolver:  Solving for Ux, Initial residual = 0.00414849, Final residual = 6.24758e-06, No Iterations 6
smoothSolver:  Solving for Uy, Initial residual = 0.00503753, Final residual = 7.43776e-06, No Iterations 6
smoothSolver:  Solving for Uz, Initial residual = 0.00415185, Final residual = 6.11232e-06, No Iterations 6
GAMG:  Solving for p, Initial residual = 0.00711855, Final residual = 0.000231772, No Iterations 2
time step continuity errors : sum local = 0.39968, global = 0.00399067, cumulative = 0.240549
ExecutionTime = 2.48 s  ClockTime = 9 s

Time = 23

smoothSolver:  Solving for Ux, Initial residual = 0.00406632, Final residual = 6.06189e-06, No Iterations 6
smoothSolver:  Solving for Uy, Initial residual = 0.00493011, Final residual = 7.18652e-06, No Iterations 6
smoothSolver:  Solving for Uz, Initial residual = 0.00407316, Final residual = 5.92196e-06, No Iterations 6
GAMG:  Solving for p, Initial residual = 0.00680617, Final residual = 0.000223729, No Iterations 2
time step continuity errors : sum local = 0.386267, global = 0.0034346, cumulative = 0.243984
ExecutionTime = 2.53 s  ClockTime = 10 s

Time = 24

smoothSolver:  Solving for Ux, Initial residual = 0.00398509, Final residual = 5.91584e-06, No Iterations 6
smoothSolver:  Solving for Uy, Initial residual = 0.00482429, Final residual = 6.9708e-06, No Iterations 6
smoothSolver:  Solving for Uz, Initial residual = 0.00399617, Final residual = 5.77095e-06, No Iterations 6
GAMG:  Solving for p, Initial residual = 0.00652667, Final residual = 0.000214253, No Iterations 2
time step continuity errors : sum local = 0.370563, global = 0.0025397, cumulative = 0.246523
ExecutionTime = 2.58 s  ClockTime = 10 s

Time = 25

smoothSolver:  Solving for Ux, Initial residual = 0.00390948, Final residual = 5.7886e-06, No Iterations 6
smoothSolver:  Solving for Uy, Initial residual = 0.0047266, Final residual = 6.78e-06, No Iterations 6
smoothSolver:  Solving for Uz, Initial residual = 0.00392482, Final residual = 5.6379e-06, No Iterations 6
GAMG:  Solving for p, Initial residual = 0.00627019, Final residual = 0.000214598, No Iterations 2
time step continuity errors : sum local = 0.371801, global = 0.00201354, cumulative = 0.248537
ExecutionTime = 2.64 s  ClockTime = 10 s

Time = 26

smoothSolver:  Solving for Ux, Initial residual = 0.0038479, Final residual = 5.67256e-06, No Iterations 6
smoothSolver:  Solving for Uy, Initial residual = 0.00464187, Final residual = 6.6138e-06, No Iterations 6
smoothSolver:  Solving for Uz, Initial residual = 0.00386549, Final residual = 5.52212e-06, No Iterations 6
GAMG:  Solving for p, Initial residual = 0.00604254, Final residual = 0.000201035, No Iterations 2
time step continuity errors : sum local = 0.348922, global = 0.00105184, cumulative = 0.249589
ExecutionTime = 2.71 s  ClockTime = 10 s

Time = 27

smoothSolver:  Solving for Ux, Initial residual = 0.0037858, Final residual = 5.56801e-06, No Iterations 6
smoothSolver:  Solving for Uy, Initial residual = 0.0045572, Final residual = 6.46437e-06, No Iterations 6
smoothSolver:  Solving for Uz, Initial residual = 0.00380552, Final residual = 5.42146e-06, No Iterations 6
GAMG:  Solving for p, Initial residual = 0.00583314, Final residual = 0.000200485, No Iterations 2
time step continuity errors : sum local = 0.348578, global = 0.000478963, cumulative = 0.250068
ExecutionTime = 2.77 s  ClockTime = 11 s

Time = 28

smoothSolver:  Solving for Ux, Initial residual = 0.00373586, Final residual = 5.46561e-06, No Iterations 6
smoothSolver:  Solving for Uy, Initial residual = 0.00448625, Final residual = 6.32338e-06, No Iterations 6
smoothSolver:  Solving for Uz, Initial residual = 0.00375785, Final residual = 5.33013e-06, No Iterations 6
GAMG:  Solving for p, Initial residual = 0.00564602, Final residual = 0.00019188, No Iterations 2
time step continuity errors : sum local = 0.334276, global = -0.000108893, cumulative = 0.249959
ExecutionTime = 2.84 s  ClockTime = 11 s

Time = 29

smoothSolver:  Solving for Ux, Initial residual = 0.00368447, Final residual = 5.36579e-06, No Iterations 6
smoothSolver:  Solving for Uy, Initial residual = 0.00441427, Final residual = 6.19274e-06, No Iterations 6
smoothSolver:  Solving for Uz, Initial residual = 0.0037093, Final residual = 5.25646e-06, No Iterations 6
GAMG:  Solving for p, Initial residual = 0.00547394, Final residual = 0.000184151, No Iterations 2
time step continuity errors : sum local = 0.321531, global = -0.000945081, cumulative = 0.249014
ExecutionTime = 2.91 s  ClockTime = 11 s

Time = 30

smoothSolver:  Solving for Ux, Initial residual = 0.00363679, Final residual = 5.27168e-06, No Iterations 6
smoothSolver:  Solving for Uy, Initial residual = 0.0043475, Final residual = 6.07172e-06, No Iterations 6
smoothSolver:  Solving for Uz, Initial residual = 0.00366412, Final residual = 5.19428e-06, No Iterations 6
GAMG:  Solving for p, Initial residual = 0.00532082, Final residual = 0.000199076, No Iterations 2
time step continuity errors : sum local = 0.348136, global = -0.000658849, cumulative = 0.248355
ExecutionTime = 2.98 s  ClockTime = 11 s

Time = 31

smoothSolver:  Solving for Ux, Initial residual = 0.00360275, Final residual = 5.17615e-06, No Iterations 6
smoothSolver:  Solving for Uy, Initial residual = 0.00429916, Final residual = 5.9568e-06, No Iterations 6
smoothSolver:  Solving for Uz, Initial residual = 0.00363046, Final residual = 5.1323e-06, No Iterations 6
GAMG:  Solving for p, Initial residual = 0.00514192, Final residual = 0.000169825, No Iterations 2
time step continuity errors : sum local = 0.29999, global = -0.00142443, cumulative = 0.24693
ExecutionTime = 3.04 s  ClockTime = 12 s

Time = 32

smoothSolver:  Solving for Ux, Initial residual = 0.00354623, Final residual = 5.08791e-06, No Iterations 6
smoothSolver:  Solving for Uy, Initial residual = 0.00422284, Final residual = 5.83648e-06, No Iterations 6
smoothSolver:  Solving for Uz, Initial residual = 0.00358084, Final residual = 5.06785e-06, No Iterations 6
GAMG:  Solving for p, Initial residual = 0.00501346, Final residual = 0.000171484, No Iterations 2
time step continuity errors : sum local = 0.303428, global = -0.001666, cumulative = 0.245264
ExecutionTime = 3.1 s  ClockTime = 12 s

Time = 33

smoothSolver:  Solving for Ux, Initial residual = 0.0035124, Final residual = 4.99892e-06, No Iterations 6
smoothSolver:  Solving for Uy, Initial residual = 0.00417331, Final residual = 5.72816e-06, No Iterations 6
smoothSolver:  Solving for Uz, Initial residual = 0.00354867, Final residual = 4.99844e-06, No Iterations 6
GAMG:  Solving for p, Initial residual = 0.00490138, Final residual = 0.000200547, No Iterations 2
time step continuity errors : sum local = 0.35525, global = -0.000636809, cumulative = 0.244628
ExecutionTime = 3.16 s  ClockTime = 12 s

Time = 34

smoothSolver:  Solving for Ux, Initial residual = 0.00348951, Final residual = 4.91201e-06, No Iterations 6
smoothSolver:  Solving for Uy, Initial residual = 0.00413928, Final residual = 5.64306e-06, No Iterations 6
smoothSolver:  Solving for Uz, Initial residual = 0.00352319, Final residual = 4.92657e-06, No Iterations 6
GAMG:  Solving for p, Initial residual = 0.004742, Final residual = 0.00015696, No Iterations 2
time step continuity errors : sum local = 0.281275, global = -0.000862996, cumulative = 0.243765
ExecutionTime = 3.21 s  ClockTime = 12 s

Time = 35

smoothSolver:  Solving for Ux, Initial residual = 0.00343279, Final residual = 4.84302e-06, No Iterations 6
smoothSolver:  Solving for Uy, Initial residual = 0.00406484, Final residual = 5.56428e-06, No Iterations 6
smoothSolver:  Solving for Uz, Initial residual = 0.00347521, Final residual = 4.85184e-06, No Iterations 6
GAMG:  Solving for p, Initial residual = 0.0046289, Final residual = 0.000167086, No Iterations 2
time step continuity errors : sum local = 0.299859, global = -5.3068e-05, cumulative = 0.243712
ExecutionTime = 3.29 s  ClockTime = 13 s

Time = 36

smoothSolver:  Solving for Ux, Initial residual = 0.00341103, Final residual = 4.7763e-06, No Iterations 6
smoothSolver:  Solving for Uy, Initial residual = 0.00402975, Final residual = 5.49599e-06, No Iterations 6
smoothSolver:  Solving for Uz, Initial residual = 0.00345169, Final residual = 4.78011e-06, No Iterations 6
GAMG:  Solving for p, Initial residual = 0.00450893, Final residual = 0.000151724, No Iterations 2
time step continuity errors : sum local = 0.273705, global = 0.000148176, cumulative = 0.24386
ExecutionTime = 3.37 s  ClockTime = 13 s

Time = 37

smoothSolver:  Solving for Ux, Initial residual = 0.00337099, Final residual = 4.71372e-06, No Iterations 6
smoothSolver:  Solving for Uy, Initial residual = 0.00397578, Final residual = 5.42875e-06, No Iterations 6
smoothSolver:  Solving for Uz, Initial residual = 0.00341484, Final residual = 4.70676e-06, No Iterations 6
GAMG:  Solving for p, Initial residual = 0.00441149, Final residual = 0.000151005, No Iterations 2
time step continuity errors : sum local = 0.272641, global = 0.000488989, cumulative = 0.244349
ExecutionTime = 3.44 s  ClockTime = 13 s

Time = 38

smoothSolver:  Solving for Ux, Initial residual = 0.00334321, Final residual = 4.65388e-06, No Iterations 6
smoothSolver:  Solving for Uy, Initial residual = 0.00393609, Final residual = 5.36346e-06, No Iterations 6
smoothSolver:  Solving for Uz, Initial residual = 0.00338685, Final residual = 4.63797e-06, No Iterations 6
GAMG:  Solving for p, Initial residual = 0.00432528, Final residual = 0.000146668, No Iterations 2
time step continuity errors : sum local = 0.264969, global = 0.000556611, cumulative = 0.244905
ExecutionTime = 3.49 s  ClockTime = 13 s

Time = 39

smoothSolver:  Solving for Ux, Initial residual = 0.00331288, Final residual = 4.59961e-06, No Iterations 6
smoothSolver:  Solving for Uy, Initial residual = 0.0038945, Final residual = 5.29902e-06, No Iterations 6
smoothSolver:  Solving for Uz, Initial residual = 0.00335661, Final residual = 4.57654e-06, No Iterations 6
GAMG:  Solving for p, Initial residual = 0.00424639, Final residual = 0.000153369, No Iterations 2
time step continuity errors : sum local = 0.277301, global = 0.000811445, cumulative = 0.245717
ExecutionTime = 3.55 s  ClockTime = 14 s

Time = 40

smoothSolver:  Solving for Ux, Initial residual = 0.00328931, Final residual = 4.54004e-06, No Iterations 6
smoothSolver:  Solving for Uy, Initial residual = 0.00386089, Final residual = 5.23422e-06, No Iterations 6
smoothSolver:  Solving for Uz, Initial residual = 0.00333133, Final residual = 4.51136e-06, No Iterations 6
GAMG:  Solving for p, Initial residual = 0.00415545, Final residual = 0.000135072, No Iterations 2
time step continuity errors : sum local = 0.24558, global = 0.00053548, cumulative = 0.246252
ExecutionTime = 3.61 s  ClockTime = 14 s

Time = 41

smoothSolver:  Solving for Ux, Initial residual = 0.00325165, Final residual = 4.48959e-06, No Iterations 6
smoothSolver:  Solving for Uy, Initial residual = 0.00381101, Final residual = 5.1719e-06, No Iterations 6
smoothSolver:  Solving for Uz, Initial residual = 0.00329606, Final residual = 4.44606e-06, No Iterations 6
GAMG:  Solving for p, Initial residual = 0.00408913, Final residual = 0.000135617, No Iterations 2
time step continuity errors : sum local = 0.246698, global = 0.000183509, cumulative = 0.246436
ExecutionTime = 3.69 s  ClockTime = 14 s

Time = 42

smoothSolver:  Solving for Ux, Initial residual = 0.00322799, Final residual = 4.43387e-06, No Iterations 6
smoothSolver:  Solving for Uy, Initial residual = 0.00377705, Final residual = 5.1082e-06, No Iterations 6
smoothSolver:  Solving for Uz, Initial residual = 0.00327127, Final residual = 4.37759e-06, No Iterations 6
GAMG:  Solving for p, Initial residual = 0.00402727, Final residual = 0.000144295, No Iterations 2
time step continuity errors : sum local = 0.262559, global = -7.44872e-05, cumulative = 0.246361
ExecutionTime = 3.77 s  ClockTime = 14 s

Time = 43

smoothSolver:  Solving for Ux, Initial residual = 0.00320778, Final residual = 4.3803e-06, No Iterations 6
smoothSolver:  Solving for Uy, Initial residual = 0.0037486, Final residual = 5.04528e-06, No Iterations 6
smoothSolver:  Solving for Uz, Initial residual = 0.00324861, Final residual = 4.31301e-06, No Iterations 6
GAMG:  Solving for p, Initial residual = 0.00394876, Final residual = 0.00012361, No Iterations 2
time step continuity errors : sum local = 0.226118, global = -0.000694915, cumulative = 0.245666
ExecutionTime = 3.83 s  ClockTime = 14 s

Time = 44

smoothSolver:  Solving for Ux, Initial residual = 0.00317052, Final residual = 4.34301e-06, No Iterations 6
smoothSolver:  Solving for Uy, Initial residual = 0.0037013, Final residual = 4.98528e-06, No Iterations 6
smoothSolver:  Solving for Uz, Initial residual = 0.00321405, Final residual = 4.26428e-06, No Iterations 6
GAMG:  Solving for p, Initial residual = 0.0038928, Final residual = 0.000129287, No Iterations 2
time step continuity errors : sum local = 0.236611, global = -0.000606884, cumulative = 0.24506
ExecutionTime = 3.89 s  ClockTime = 15 s

Time = 45

smoothSolver:  Solving for Ux, Initial residual = 0.0031512, Final residual = 4.30055e-06, No Iterations 6
smoothSolver:  Solving for Uy, Initial residual = 0.00367562, Final residual = 4.9232e-06, No Iterations 6
smoothSolver:  Solving for Uz, Initial residual = 0.00319215, Final residual = 4.2177e-06, No Iterations 6
GAMG:  Solving for p, Initial residual = 0.00382475, Final residual = 0.000118434, No Iterations 2
time step continuity errors : sum local = 0.217572, global = -0.00113184, cumulative = 0.243928
ExecutionTime = 3.95 s  ClockTime = 15 s

Time = 46

smoothSolver:  Solving for Ux, Initial residual = 0.00311849, Final residual = 4.26965e-06, No Iterations 6
smoothSolver:  Solving for Uy, Initial residual = 0.00363503, Final residual = 4.86418e-06, No Iterations 6
smoothSolver:  Solving for Uz, Initial residual = 0.00316221, Final residual = 4.18069e-06, No Iterations 6
GAMG:  Solving for p, Initial residual = 0.00376869, Final residual = 0.00012483, No Iterations 2
time step continuity errors : sum local = 0.229416, global = -0.00104675, cumulative = 0.242881
ExecutionTime = 4 s  ClockTime = 15 s

Time = 47

smoothSolver:  Solving for Ux, Initial residual = 0.00309832, Final residual = 4.233e-06, No Iterations 6
smoothSolver:  Solving for Uy, Initial residual = 0.0036104, Final residual = 4.80972e-06, No Iterations 6
smoothSolver:  Solving for Uz, Initial residual = 0.00314099, Final residual = 9.97345e-06, No Iterations 5
GAMG:  Solving for p, Initial residual = 0.00370683, Final residual = 0.000114515, No Iterations 2
time step continuity errors : sum local = 0.211203, global = -0.00143772, cumulative = 0.241443
ExecutionTime = 4.06 s  ClockTime = 15 s

Time = 48

smoothSolver:  Solving for Ux, Initial residual = 0.00306625, Final residual = 4.19997e-06, No Iterations 6
smoothSolver:  Solving for Uy, Initial residual = 0.00357196, Final residual = 4.75988e-06, No Iterations 6
smoothSolver:  Solving for Uz, Initial residual = 0.0031104, Final residual = 9.92366e-06, No Iterations 5
GAMG:  Solving for p, Initial residual = 0.00365913, Final residual = 0.000116449, No Iterations 2
time step continuity errors : sum local = 0.214853, global = -0.00168212, cumulative = 0.239761
ExecutionTime = 4.12 s  ClockTime = 16 s

Time = 49

smoothSolver:  Solving for Ux, Initial residual = 0.00304349, Final residual = 9.93257e-06, No Iterations 5
smoothSolver:  Solving for Uy, Initial residual = 0.00354402, Final residual = 4.7049e-06, No Iterations 6
smoothSolver:  Solving for Uz, Initial residual = 0.00308674, Final residual = 9.86081e-06, No Iterations 5
GAMG:  Solving for p, Initial residual = 0.00361727, Final residual = 0.000115706, No Iterations 2
time step continuity errors : sum local = 0.213504, global = -0.00183675, cumulative = 0.237924
ExecutionTime = 4.17 s  ClockTime = 16 s

Time = 50

smoothSolver:  Solving for Ux, Initial residual = 0.0030199, Final residual = 9.88458e-06, No Iterations 5
smoothSolver:  Solving for Uy, Initial residual = 0.00351384, Final residual = 4.65611e-06, No Iterations 6
smoothSolver:  Solving for Uz, Initial residual = 0.00306243, Final residual = 9.78912e-06, No Iterations 5
GAMG:  Solving for p, Initial residual = 0.00357603, Final residual = 0.000130411, No Iterations 2
time step continuity errors : sum local = 0.240667, global = -0.00169711, cumulative = 0.236227
ExecutionTime = 4.28 s  ClockTime = 16 s

wallShearStress wallShearStress write:
    writing field wallShearStress
    min/max(WALL) = (-0.0542665 -0.100169 -0.0500259), (0.0858794 0.0278945 0.152135)
Time = 51

smoothSolver:  Solving for Ux, Initial residual = 0.00300378, Final residual = 9.82362e-06, No Iterations 5
smoothSolver:  Solving for Uy, Initial residual = 0.00349245, Final residual = 4.60851e-06, No Iterations 6
smoothSolver:  Solving for Uz, Initial residual = 0.00304483, Final residual = 9.70129e-06, No Iterations 5
GAMG:  Solving for p, Initial residual = 0.00351997, Final residual = 0.000106074, No Iterations 2
time step continuity errors : sum local = 0.196749, global = -0.00193091, cumulative = 0.234296
ExecutionTime = 4.34 s  ClockTime = 16 s

Time = 52

smoothSolver:  Solving for Ux, Initial residual = 0.00296868, Final residual = 9.75663e-06, No Iterations 5
smoothSolver:  Solving for Uy, Initial residual = 0.00344992, Final residual = 4.56285e-06, No Iterations 6
smoothSolver:  Solving for Uz, Initial residual = 0.00301257, Final residual = 9.62567e-06, No Iterations 5
GAMG:  Solving for p, Initial residual = 0.00348371, Final residual = 0.000106913, No Iterations 2
time step continuity errors : sum local = 0.198327, global = -0.00196982, cumulative = 0.232327
ExecutionTime = 4.39 s  ClockTime = 17 s

Time = 53

smoothSolver:  Solving for Ux, Initial residual = 0.00294944, Final residual = 9.67754e-06, No Iterations 5
smoothSolver:  Solving for Uy, Initial residual = 0.00342604, Final residual = 4.51982e-06, No Iterations 6
smoothSolver:  Solving for Uz, Initial residual = 0.00299246, Final residual = 9.53554e-06, No Iterations 5
GAMG:  Solving for p, Initial residual = 0.00344694, Final residual = 0.00010347, No Iterations 2
time step continuity errors : sum local = 0.191908, global = -0.00206271, cumulative = 0.230264
ExecutionTime = 4.45 s  ClockTime = 17 s

Time = 54

smoothSolver:  Solving for Ux, Initial residual = 0.00292634, Final residual = 9.58025e-06, No Iterations 5
smoothSolver:  Solving for Uy, Initial residual = 0.00339882, Final residual = 4.4791e-06, No Iterations 6
smoothSolver:  Solving for Uz, Initial residual = 0.00296961, Final residual = 9.44475e-06, No Iterations 5
GAMG:  Solving for p, Initial residual = 0.00341167, Final residual = 0.000123143, No Iterations 2
time step continuity errors : sum local = 0.228344, global = -0.00158306, cumulative = 0.228681
ExecutionTime = 4.51 s  ClockTime = 17 s

Time = 55

smoothSolver:  Solving for Ux, Initial residual = 0.00291095, Final residual = 9.47796e-06, No Iterations 5
smoothSolver:  Solving for Uy, Initial residual = 0.00338099, Final residual = 4.44473e-06, No Iterations 6
smoothSolver:  Solving for Uz, Initial residual = 0.00295474, Final residual = 9.36454e-06, No Iterations 5
GAMG:  Solving for p, Initial residual = 0.00335858, Final residual = 9.50926e-05, No Iterations 2
time step continuity errors : sum local = 0.177309, global = -0.0016248, cumulative = 0.227056
ExecutionTime = 4.58 s  ClockTime = 17 s

Time = 56

smoothSolver:  Solving for Ux, Initial residual = 0.00287643, Final residual = 9.41471e-06, No Iterations 5
smoothSolver:  Solving for Uy, Initial residual = 0.00334026, Final residual = 4.42675e-06, No Iterations 6
smoothSolver:  Solving for Uz, Initial residual = 0.00292312, Final residual = 9.33661e-06, No Iterations 5
GAMG:  Solving for p, Initial residual = 0.00331863, Final residual = 9.93994e-05, No Iterations 2
time step continuity errors : sum local = 0.185327, global = -0.00147158, cumulative = 0.225584
ExecutionTime = 4.65 s  ClockTime = 18 s

Time = 57

smoothSolver:  Solving for Ux, Initial residual = 0.00285683, Final residual = 9.3611e-06, No Iterations 5
smoothSolver:  Solving for Uy, Initial residual = 0.00331755, Final residual = 4.41157e-06, No Iterations 6
smoothSolver:  Solving for Uz, Initial residual = 0.00290425, Final residual = 9.31128e-06, No Iterations 5
GAMG:  Solving for p, Initial residual = 0.00328234, Final residual = 9.96632e-05, No Iterations 2
time step continuity errors : sum local = 0.185748, global = -0.00137543, cumulative = 0.224209
ExecutionTime = 4.71 s  ClockTime = 18 s

Time = 58

smoothSolver:  Solving for Ux, Initial residual = 0.00283568, Final residual = 9.31671e-06, No Iterations 5
smoothSolver:  Solving for Uy, Initial residual = 0.00329232, Final residual = 4.39431e-06, No Iterations 6
smoothSolver:  Solving for Uz, Initial residual = 0.00288312, Final residual = 9.29107e-06, No Iterations 5
GAMG:  Solving for p, Initial residual = 0.00324423, Final residual = 9.90708e-05, No Iterations 2
time step continuity errors : sum local = 0.184589, global = -0.00131355, cumulative = 0.222895
ExecutionTime = 4.77 s  ClockTime = 18 s

Time = 59

smoothSolver:  Solving for Ux, Initial residual = 0.00281425, Final residual = 9.27238e-06, No Iterations 5
smoothSolver:  Solving for Uy, Initial residual = 0.00326624, Final residual = 4.37424e-06, No Iterations 6
smoothSolver:  Solving for Uz, Initial residual = 0.00286137, Final residual = 9.2814e-06, No Iterations 5
GAMG:  Solving for p, Initial residual = 0.00320802, Final residual = 0.000110157, No Iterations 2
time step continuity errors : sum local = 0.205214, global = -0.00094185, cumulative = 0.221954
ExecutionTime = 4.82 s  ClockTime = 18 s

Time = 60

smoothSolver:  Solving for Ux, Initial residual = 0.00279799, Final residual = 9.21975e-06, No Iterations 5
smoothSolver:  Solving for Uy, Initial residual = 0.00324501, Final residual = 4.34932e-06, No Iterations 6
smoothSolver:  Solving for Uz, Initial residual = 0.002845, Final residual = 9.25731e-06, No Iterations 5
GAMG:  Solving for p, Initial residual = 0.00316269, Final residual = 9.39184e-05, No Iterations 2
time step continuity errors : sum local = 0.175649, global = -0.000774967, cumulative = 0.221179
ExecutionTime = 4.87 s  ClockTime = 18 s

Time = 61

smoothSolver:  Solving for Ux, Initial residual = 0.00276981, Final residual = 9.16647e-06, No Iterations 5
smoothSolver:  Solving for Uy, Initial residual = 0.0032099, Final residual = 4.32849e-06, No Iterations 6
smoothSolver:  Solving for Uz, Initial residual = 0.00281676, Final residual = 9.24097e-06, No Iterations 5
GAMG:  Solving for p, Initial residual = 0.00313448, Final residual = 9.69962e-05, No Iterations 2
time step continuity errors : sum local = 0.181343, global = -0.000689901, cumulative = 0.220489
ExecutionTime = 4.93 s  ClockTime = 19 s

Time = 62

smoothSolver:  Solving for Ux, Initial residual = 0.002753, Final residual = 9.09645e-06, No Iterations 5
smoothSolver:  Solving for Uy, Initial residual = 0.00318655, Final residual = 4.30712e-06, No Iterations 6
smoothSolver:  Solving for Uz, Initial residual = 0.00279753, Final residual = 9.20601e-06, No Iterations 5
GAMG:  Solving for p, Initial residual = 0.00310421, Final residual = 9.59894e-05, No Iterations 2
time step continuity errors : sum local = 0.17943, global = -0.000650013, cumulative = 0.219839
ExecutionTime = 4.99 s  ClockTime = 19 s

Time = 63

smoothSolver:  Solving for Ux, Initial residual = 0.00273322, Final residual = 9.02004e-06, No Iterations 5
smoothSolver:  Solving for Uy, Initial residual = 0.00316011, Final residual = 4.28452e-06, No Iterations 6
smoothSolver:  Solving for Uz, Initial residual = 0.00277636, Final residual = 9.15694e-06, No Iterations 5
GAMG:  Solving for p, Initial residual = 0.00307458, Final residual = 9.59473e-05, No Iterations 2
time step continuity errors : sum local = 0.179309, global = -0.000687193, cumulative = 0.219151
ExecutionTime = 5.03 s  ClockTime = 19 s

Time = 64

smoothSolver:  Solving for Ux, Initial residual = 0.00271426, Final residual = 8.93842e-06, No Iterations 5
smoothSolver:  Solving for Uy, Initial residual = 0.00313394, Final residual = 4.26362e-06, No Iterations 6
smoothSolver:  Solving for Uz, Initial residual = 0.00275561, Final residual = 9.08466e-06, No Iterations 5
GAMG:  Solving for p, Initial residual = 0.00304683, Final residual = 9.62216e-05, No Iterations 2
time step continuity errors : sum local = 0.179779, global = -0.000794526, cumulative = 0.218357
ExecutionTime = 5.1 s  ClockTime = 19 s

Time = 65

smoothSolver:  Solving for Ux, Initial residual = 0.00269428, Final residual = 8.84792e-06, No Iterations 5
smoothSolver:  Solving for Uy, Initial residual = 0.00310817, Final residual = 4.24102e-06, No Iterations 6
smoothSolver:  Solving for Uz, Initial residual = 0.00273505, Final residual = 8.99929e-06, No Iterations 5
GAMG:  Solving for p, Initial residual = 0.00301924, Final residual = 9.61833e-05, No Iterations 2
time step continuity errors : sum local = 0.179684, global = -0.000964328, cumulative = 0.217393
ExecutionTime = 5.17 s  ClockTime = 19 s

Time = 66

smoothSolver:  Solving for Ux, Initial residual = 0.00267494, Final residual = 8.74628e-06, No Iterations 5
smoothSolver:  Solving for Uy, Initial residual = 0.00308362, Final residual = 4.21315e-06, No Iterations 6
smoothSolver:  Solving for Uz, Initial residual = 0.00271478, Final residual = 8.90117e-06, No Iterations 5
GAMG:  Solving for p, Initial residual = 0.0029924, Final residual = 9.46094e-05, No Iterations 2
time step continuity errors : sum local = 0.176728, global = -0.000999174, cumulative = 0.216393
ExecutionTime = 5.24 s  ClockTime = 20 s

Time = 67

smoothSolver:  Solving for Ux, Initial residual = 0.00265538, Final residual = 8.64014e-06, No Iterations 5
smoothSolver:  Solving for Uy, Initial residual = 0.00305815, Final residual = 9.96895e-06, No Iterations 5
smoothSolver:  Solving for Uz, Initial residual = 0.00269319, Final residual = 8.79221e-06, No Iterations 5
GAMG:  Solving for p, Initial residual = 0.0029673, Final residual = 9.5083e-05, No Iterations 2
time step continuity errors : sum local = 0.177562, global = -0.00123895, cumulative = 0.215154
ExecutionTime = 5.31 s  ClockTime = 20 s

Time = 68

smoothSolver:  Solving for Ux, Initial residual = 0.0026384, Final residual = 8.54944e-06, No Iterations 5
smoothSolver:  Solving for Uy, Initial residual = 0.00303358, Final residual = 9.92553e-06, No Iterations 5
smoothSolver:  Solving for Uz, Initial residual = 0.00267364, Final residual = 8.69612e-06, No Iterations 5
GAMG:  Solving for p, Initial residual = 0.00293958, Final residual = 9.64479e-05, No Iterations 2
time step continuity errors : sum local = 0.180101, global = -0.00115459, cumulative = 0.214
ExecutionTime = 5.38 s  ClockTime = 20 s

Time = 69

smoothSolver:  Solving for Ux, Initial residual = 0.00262074, Final residual = 8.47813e-06, No Iterations 5
smoothSolver:  Solving for Uy, Initial residual = 0.00300942, Final residual = 9.88188e-06, No Iterations 5
smoothSolver:  Solving for Uz, Initial residual = 0.00265335, Final residual = 8.62591e-06, No Iterations 5
GAMG:  Solving for p, Initial residual = 0.00291003, Final residual = 9.05256e-05, No Iterations 2
time step continuity errors : sum local = 0.16919, global = -0.00111641, cumulative = 0.212883
ExecutionTime = 5.44 s  ClockTime = 20 s

Time = 70

smoothSolver:  Solving for Ux, Initial residual = 0.00259885, Final residual = 8.42751e-06, No Iterations 5
smoothSolver:  Solving for Uy, Initial residual = 0.0029817, Final residual = 9.83628e-06, No Iterations 5
smoothSolver:  Solving for Uz, Initial residual = 0.00262846, Final residual = 8.59277e-06, No Iterations 5
GAMG:  Solving for p, Initial residual = 0.00288838, Final residual = 9.12123e-05, No Iterations 2
time step continuity errors : sum local = 0.170389, global = -0.00104831, cumulative = 0.211835
ExecutionTime = 5.51 s  ClockTime = 20 s

Time = 71

smoothSolver:  Solving for Ux, Initial residual = 0.00258129, Final residual = 8.39484e-06, No Iterations 5
smoothSolver:  Solving for Uy, Initial residual = 0.00295791, Final residual = 9.78597e-06, No Iterations 5
smoothSolver:  Solving for Uz, Initial residual = 0.00260792, Final residual = 8.56631e-06, No Iterations 5
GAMG:  Solving for p, Initial residual = 0.00286906, Final residual = 9.03942e-05, No Iterations 2
time step continuity errors : sum local = 0.168782, global = -0.000977246, cumulative = 0.210858
ExecutionTime = 5.57 s  ClockTime = 21 s

Time = 72

smoothSolver:  Solving for Ux, Initial residual = 0.00256221, Final residual = 8.36736e-06, No Iterations 5
smoothSolver:  Solving for Uy, Initial residual = 0.00293339, Final residual = 9.72996e-06, No Iterations 5
smoothSolver:  Solving for Uz, Initial residual = 0.00258671, Final residual = 8.55231e-06, No Iterations 5
GAMG:  Solving for p, Initial residual = 0.00285145, Final residual = 8.95213e-05, No Iterations 2
time step continuity errors : sum local = 0.167075, global = -0.000880783, cumulative = 0.209977
ExecutionTime = 5.62 s  ClockTime = 21 s

Time = 73

smoothSolver:  Solving for Ux, Initial residual = 0.00254302, Final residual = 8.3476e-06, No Iterations 5
smoothSolver:  Solving for Uy, Initial residual = 0.00290953, Final residual = 9.66368e-06, No Iterations 5
smoothSolver:  Solving for Uz, Initial residual = 0.00256555, Final residual = 8.5335e-06, No Iterations 5
GAMG:  Solving for p, Initial residual = 0.00283447, Final residual = 8.88221e-05, No Iterations 2
time step continuity errors : sum local = 0.165688, global = -0.000763874, cumulative = 0.209213
ExecutionTime = 5.68 s  ClockTime = 21 s

Time = 74

smoothSolver:  Solving for Ux, Initial residual = 0.00252397, Final residual = 8.32309e-06, No Iterations 5
smoothSolver:  Solving for Uy, Initial residual = 0.0028865, Final residual = 9.59494e-06, No Iterations 5
smoothSolver:  Solving for Uz, Initial residual = 0.00254416, Final residual = 8.50325e-06, No Iterations 5
GAMG:  Solving for p, Initial residual = 0.00281683, Final residual = 8.83459e-05, No Iterations 2
time step continuity errors : sum local = 0.164714, global = -0.000655416, cumulative = 0.208558
ExecutionTime = 5.73 s  ClockTime = 21 s

Time = 75

smoothSolver:  Solving for Ux, Initial residual = 0.00250479, Final residual = 8.2779e-06, No Iterations 5
smoothSolver:  Solving for Uy, Initial residual = 0.00286382, Final residual = 9.51381e-06, No Iterations 5
smoothSolver:  Solving for Uz, Initial residual = 0.00252278, Final residual = 8.43883e-06, No Iterations 5
GAMG:  Solving for p, Initial residual = 0.00280065, Final residual = 8.73345e-05, No Iterations 2
time step continuity errors : sum local = 0.162744, global = -0.000366984, cumulative = 0.208191
ExecutionTime = 5.78 s  ClockTime = 21 s

Time = 76

smoothSolver:  Solving for Ux, Initial residual = 0.00248483, Final residual = 8.22259e-06, No Iterations 5
smoothSolver:  Solving for Uy, Initial residual = 0.00284068, Final residual = 9.42635e-06, No Iterations 5
smoothSolver:  Solving for Uz, Initial residual = 0.00250044, Final residual = 8.35719e-06, No Iterations 5
GAMG:  Solving for p, Initial residual = 0.00278563, Final residual = 8.84644e-05, No Iterations 2
time step continuity errors : sum local = 0.164742, global = -0.000362328, cumulative = 0.207829
ExecutionTime = 5.84 s  ClockTime = 22 s

Time = 77

smoothSolver:  Solving for Ux, Initial residual = 0.00246714, Final residual = 8.156e-06, No Iterations 5
smoothSolver:  Solving for Uy, Initial residual = 0.00281916, Final residual = 9.34632e-06, No Iterations 5
smoothSolver:  Solving for Uz, Initial residual = 0.00248063, Final residual = 8.26832e-06, No Iterations 5
GAMG:  Solving for p, Initial residual = 0.00277108, Final residual = 8.62746e-05, No Iterations 2
time step continuity errors : sum local = 0.16058, global = -0.000341146, cumulative = 0.207487
ExecutionTime = 5.88 s  ClockTime = 22 s

Time = 78

smoothSolver:  Solving for Ux, Initial residual = 0.0024466, Final residual = 8.10142e-06, No Iterations 5
smoothSolver:  Solving for Uy, Initial residual = 0.00279587, Final residual = 9.26916e-06, No Iterations 5
smoothSolver:  Solving for Uz, Initial residual = 0.00245844, Final residual = 8.16696e-06, No Iterations 5
GAMG:  Solving for p, Initial residual = 0.0027594, Final residual = 8.55623e-05, No Iterations 2
time step continuity errors : sum local = 0.159169, global = -0.000346282, cumulative = 0.207141
ExecutionTime = 5.94 s  ClockTime = 22 s

Time = 79

smoothSolver:  Solving for Ux, Initial residual = 0.00242662, Final residual = 8.0552e-06, No Iterations 5
smoothSolver:  Solving for Uy, Initial residual = 0.00277423, Final residual = 9.19309e-06, No Iterations 5
smoothSolver:  Solving for Uz, Initial residual = 0.00243727, Final residual = 8.06316e-06, No Iterations 5
GAMG:  Solving for p, Initial residual = 0.00274721, Final residual = 8.47591e-05, No Iterations 2
time step continuity errors : sum local = 0.157597, global = -0.000146438, cumulative = 0.206995
ExecutionTime = 5.99 s  ClockTime = 22 s

Time = 80

smoothSolver:  Solving for Ux, Initial residual = 0.00240627, Final residual = 8.00891e-06, No Iterations 5
smoothSolver:  Solving for Uy, Initial residual = 0.00275322, Final residual = 9.1232e-06, No Iterations 5
smoothSolver:  Solving for Uz, Initial residual = 0.00241586, Final residual = 7.98601e-06, No Iterations 5
GAMG:  Solving for p, Initial residual = 0.00273551, Final residual = 8.52589e-05, No Iterations 2
time step continuity errors : sum local = 0.158427, global = -0.000214172, cumulative = 0.20678
ExecutionTime = 6.04 s  ClockTime = 23 s

Time = 81

smoothSolver:  Solving for Ux, Initial residual = 0.00238708, Final residual = 7.96633e-06, No Iterations 5
smoothSolver:  Solving for Uy, Initial residual = 0.00273369, Final residual = 9.05717e-06, No Iterations 5
smoothSolver:  Solving for Uz, Initial residual = 0.00239641, Final residual = 7.91963e-06, No Iterations 5
GAMG:  Solving for p, Initial residual = 0.00272313, Final residual = 8.31947e-05, No Iterations 2
time step continuity errors : sum local = 0.154499, global = -0.000246472, cumulative = 0.206534
ExecutionTime = 6.1 s  ClockTime = 23 s

Time = 82

smoothSolver:  Solving for Ux, Initial residual = 0.00236646, Final residual = 7.93517e-06, No Iterations 5
smoothSolver:  Solving for Uy, Initial residual = 0.00271286, Final residual = 8.98857e-06, No Iterations 5
smoothSolver:  Solving for Uz, Initial residual = 0.0023755, Final residual = 7.86573e-06, No Iterations 5
GAMG:  Solving for p, Initial residual = 0.00271299, Final residual = 8.17606e-05, No Iterations 2
time step continuity errors : sum local = 0.151749, global = -0.000297097, cumulative = 0.206237
ExecutionTime = 6.17 s  ClockTime = 23 s

Time = 83

smoothSolver:  Solving for Ux, Initial residual = 0.0023458, Final residual = 7.8909e-06, No Iterations 5
smoothSolver:  Solving for Uy, Initial residual = 0.00269281, Final residual = 8.92029e-06, No Iterations 5
smoothSolver:  Solving for Uz, Initial residual = 0.00235489, Final residual = 7.82308e-06, No Iterations 5
GAMG:  Solving for p, Initial residual = 0.00270626, Final residual = 8.03332e-05, No Iterations 2
time step continuity errors : sum local = 0.14901, global = -0.000315462, cumulative = 0.205921
ExecutionTime = 6.21 s  ClockTime = 23 s

Time = 84

smoothSolver:  Solving for Ux, Initial residual = 0.00232482, Final residual = 7.83628e-06, No Iterations 5
smoothSolver:  Solving for Uy, Initial residual = 0.00267386, Final residual = 8.84723e-06, No Iterations 5
smoothSolver:  Solving for Uz, Initial residual = 0.00233407, Final residual = 7.78145e-06, No Iterations 5
GAMG:  Solving for p, Initial residual = 0.00270087, Final residual = 7.95167e-05, No Iterations 2
time step continuity errors : sum local = 0.147412, global = -0.000187287, cumulative = 0.205734
ExecutionTime = 6.27 s  ClockTime = 23 s

Time = 85

smoothSolver:  Solving for Ux, Initial residual = 0.00230362, Final residual = 7.78639e-06, No Iterations 5
smoothSolver:  Solving for Uy, Initial residual = 0.0026546, Final residual = 8.77964e-06, No Iterations 5
smoothSolver:  Solving for Uz, Initial residual = 0.00231293, Final residual = 7.754e-06, No Iterations 5
GAMG:  Solving for p, Initial residual = 0.00269514, Final residual = 7.97638e-05, No Iterations 2
time step continuity errors : sum local = 0.147776, global = -0.000257211, cumulative = 0.205477
ExecutionTime = 6.33 s  ClockTime = 24 s

Time = 86

smoothSolver:  Solving for Ux, Initial residual = 0.00228283, Final residual = 7.74309e-06, No Iterations 5
smoothSolver:  Solving for Uy, Initial residual = 0.00263605, Final residual = 8.7194e-06, No Iterations 5
smoothSolver:  Solving for Uz, Initial residual = 0.00229279, Final residual = 7.72048e-06, No Iterations 5
GAMG:  Solving for p, Initial residual = 0.00268582, Final residual = 7.89051e-05, No Iterations 2
time step continuity errors : sum local = 0.146102, global = -0.000290159, cumulative = 0.205187
ExecutionTime = 6.38 s  ClockTime = 24 s

Time = 87

smoothSolver:  Solving for Ux, Initial residual = 0.00226046, Final residual = 7.69754e-06, No Iterations 5
smoothSolver:  Solving for Uy, Initial residual = 0.00261634, Final residual = 8.65016e-06, No Iterations 5
smoothSolver:  Solving for Uz, Initial residual = 0.00227162, Final residual = 7.68527e-06, No Iterations 5
GAMG:  Solving for p, Initial residual = 0.00267597, Final residual = 7.86081e-05, No Iterations 2
time step continuity errors : sum local = 0.145452, global = -0.000353502, cumulative = 0.204833
ExecutionTime = 6.43 s  ClockTime = 24 s

Time = 88

smoothSolver:  Solving for Ux, Initial residual = 0.00223846, Final residual = 7.63467e-06, No Iterations 5
smoothSolver:  Solving for Uy, Initial residual = 0.00259693, Final residual = 8.56897e-06, No Iterations 5
smoothSolver:  Solving for Uz, Initial residual = 0.00225073, Final residual = 7.6325e-06, No Iterations 5
GAMG:  Solving for p, Initial residual = 0.00266666, Final residual = 7.84719e-05, No Iterations 2
time step continuity errors : sum local = 0.145104, global = -0.000447768, cumulative = 0.204386
ExecutionTime = 6.48 s  ClockTime = 24 s

Time = 89

smoothSolver:  Solving for Ux, Initial residual = 0.00221791, Final residual = 7.55616e-06, No Iterations 5
smoothSolver:  Solving for Uy, Initial residual = 0.00257784, Final residual = 8.48401e-06, No Iterations 5
smoothSolver:  Solving for Uz, Initial residual = 0.00222987, Final residual = 7.56924e-06, No Iterations 5
GAMG:  Solving for p, Initial residual = 0.00265805, Final residual = 7.84459e-05, No Iterations 2
time step continuity errors : sum local = 0.144962, global = -0.000574142, cumulative = 0.203811
ExecutionTime = 6.53 s  ClockTime = 25 s

Time = 90

smoothSolver:  Solving for Ux, Initial residual = 0.00219763, Final residual = 7.46615e-06, No Iterations 5
smoothSolver:  Solving for Uy, Initial residual = 0.00255923, Final residual = 8.3989e-06, No Iterations 5
smoothSolver:  Solving for Uz, Initial residual = 0.0022094, Final residual = 7.4897e-06, No Iterations 5
GAMG:  Solving for p, Initial residual = 0.0026496, Final residual = 7.845e-05, No Iterations 2
time step continuity errors : sum local = 0.144896, global = -0.000772204, cumulative = 0.203039
ExecutionTime = 6.59 s  ClockTime = 25 s

Time = 91

smoothSolver:  Solving for Ux, Initial residual = 0.00217669, Final residual = 7.37491e-06, No Iterations 5
smoothSolver:  Solving for Uy, Initial residual = 0.00254091, Final residual = 8.32251e-06, No Iterations 5
smoothSolver:  Solving for Uz, Initial residual = 0.00218923, Final residual = 7.39797e-06, No Iterations 5
GAMG:  Solving for p, Initial residual = 0.0026433, Final residual = 7.80083e-05, No Iterations 2
time step continuity errors : sum local = 0.144011, global = -0.00099446, cumulative = 0.202045
ExecutionTime = 6.64 s  ClockTime = 25 s

Time = 92

smoothSolver:  Solving for Ux, Initial residual = 0.002156, Final residual = 7.28288e-06, No Iterations 5
smoothSolver:  Solving for Uy, Initial residual = 0.00252226, Final residual = 8.25418e-06, No Iterations 5
smoothSolver:  Solving for Uz, Initial residual = 0.0021692, Final residual = 7.30401e-06, No Iterations 5
GAMG:  Solving for p, Initial residual = 0.00263788, Final residual = 7.82057e-05, No Iterations 2
time step continuity errors : sum local = 0.144312, global = -0.00120109, cumulative = 0.200844
ExecutionTime = 6.69 s  ClockTime = 25 s

Time = 93

smoothSolver:  Solving for Ux, Initial residual = 0.00213644, Final residual = 7.19976e-06, No Iterations 5
smoothSolver:  Solving for Uy, Initial residual = 0.00250413, Final residual = 8.18778e-06, No Iterations 5
smoothSolver:  Solving for Uz, Initial residual = 0.00214931, Final residual = 7.22212e-06, No Iterations 5
GAMG:  Solving for p, Initial residual = 0.00263291, Final residual = 7.64163e-05, No Iterations 2
time step continuity errors : sum local = 0.140982, global = -0.00137496, cumulative = 0.199469
ExecutionTime = 6.74 s  ClockTime = 25 s

Time = 94

smoothSolver:  Solving for Ux, Initial residual = 0.00211524, Final residual = 7.11787e-06, No Iterations 5
smoothSolver:  Solving for Uy, Initial residual = 0.00248491, Final residual = 8.13113e-06, No Iterations 5
smoothSolver:  Solving for Uz, Initial residual = 0.00212868, Final residual = 7.15178e-06, No Iterations 5
GAMG:  Solving for p, Initial residual = 0.00262907, Final residual = 8.03534e-05, No Iterations 2
time step continuity errors : sum local = 0.148187, global = -0.0014564, cumulative = 0.198012
ExecutionTime = 6.78 s  ClockTime = 26 s

Time = 95

smoothSolver:  Solving for Ux, Initial residual = 0.00209657, Final residual = 7.03196e-06, No Iterations 5
smoothSolver:  Solving for Uy, Initial residual = 0.00246838, Final residual = 8.0838e-06, No Iterations 5
smoothSolver:  Solving for Uz, Initial residual = 0.00211158, Final residual = 7.08628e-06, No Iterations 5
GAMG:  Solving for p, Initial residual = 0.002622, Final residual = 7.57452e-05, No Iterations 2
time step continuity errors : sum local = 0.139822, global = -0.00161102, cumulative = 0.196401
ExecutionTime = 6.84 s  ClockTime = 26 s

Time = 96

smoothSolver:  Solving for Ux, Initial residual = 0.00207415, Final residual = 6.9563e-06, No Iterations 5
smoothSolver:  Solving for Uy, Initial residual = 0.00244769, Final residual = 8.04137e-06, No Iterations 5
smoothSolver:  Solving for Uz, Initial residual = 0.00209005, Final residual = 7.04018e-06, No Iterations 5
GAMG:  Solving for p, Initial residual = 0.00262206, Final residual = 8.1115e-05, No Iterations 2
time step continuity errors : sum local = 0.149685, global = -0.00148156, cumulative = 0.19492
ExecutionTime = 6.89 s  ClockTime = 26 s

Time = 97

smoothSolver:  Solving for Ux, Initial residual = 0.00205657, Final residual = 6.87928e-06, No Iterations 5
smoothSolver:  Solving for Uy, Initial residual = 0.00243284, Final residual = 7.99631e-06, No Iterations 5
smoothSolver:  Solving for Uz, Initial residual = 0.00207367, Final residual = 6.994e-06, No Iterations 5
GAMG:  Solving for p, Initial residual = 0.00261586, Final residual = 7.61927e-05, No Iterations 2
time step continuity errors : sum local = 0.140876, global = -0.00154425, cumulative = 0.193375
ExecutionTime = 6.94 s  ClockTime = 26 s

Time = 98

smoothSolver:  Solving for Ux, Initial residual = 0.00203379, Final residual = 6.81531e-06, No Iterations 5
smoothSolver:  Solving for Uy, Initial residual = 0.00241243, Final residual = 7.9481e-06, No Iterations 5
smoothSolver:  Solving for Uz, Initial residual = 0.00205293, Final residual = 6.95561e-06, No Iterations 5
GAMG:  Solving for p, Initial residual = 0.002612, Final residual = 7.75449e-05, No Iterations 2
time step continuity errors : sum local = 0.143323, global = -0.00163936, cumulative = 0.191736
ExecutionTime = 7.01 s  ClockTime = 26 s

Time = 99

smoothSolver:  Solving for Ux, Initial residual = 0.00201472, Final residual = 6.75537e-06, No Iterations 5
smoothSolver:  Solving for Uy, Initial residual = 0.0023964, Final residual = 7.8893e-06, No Iterations 5
smoothSolver:  Solving for Uz, Initial residual = 0.00203577, Final residual = 6.91421e-06, No Iterations 5
GAMG:  Solving for p, Initial residual = 0.00260483, Final residual = 8.122e-05, No Iterations 2
time step continuity errors : sum local = 0.150064, global = -0.00147357, cumulative = 0.190263
ExecutionTime = 7.07 s  ClockTime = 27 s

Time = 100

smoothSolver:  Solving for Ux, Initial residual = 0.00199784, Final residual = 6.69229e-06, No Iterations 5
smoothSolver:  Solving for Uy, Initial residual = 0.00238192, Final residual = 7.81931e-06, No Iterations 5
smoothSolver:  Solving for Uz, Initial residual = 0.00202077, Final residual = 6.88563e-06, No Iterations 5
GAMG:  Solving for p, Initial residual = 0.00259333, Final residual = 7.62418e-05, No Iterations 2
time step continuity errors : sum local = 0.141103, global = -0.00150809, cumulative = 0.188754
ExecutionTime = 7.18 s  ClockTime = 27 s

wallShearStress wallShearStress write:
    writing field wallShearStress
    min/max(WALL) = (-0.066394 -0.100169 -0.0488032), (0.0858794 0.0212684 0.152135)
Time = 101

smoothSolver:  Solving for Ux, Initial residual = 0.00197618, Final residual = 6.62931e-06, No Iterations 5
smoothSolver:  Solving for Uy, Initial residual = 0.00236153, Final residual = 7.75824e-06, No Iterations 5
smoothSolver:  Solving for Uz, Initial residual = 0.00200175, Final residual = 6.86898e-06, No Iterations 5
GAMG:  Solving for p, Initial residual = 0.00258864, Final residual = 8.0775e-05, No Iterations 2
time step continuity errors : sum local = 0.149442, global = -0.00130668, cumulative = 0.187448
ExecutionTime = 7.29 s  ClockTime = 27 s

Time = 102

smoothSolver:  Solving for Ux, Initial residual = 0.00196085, Final residual = 6.56416e-06, No Iterations 5
smoothSolver:  Solving for Uy, Initial residual = 0.00234859, Final residual = 7.70143e-06, No Iterations 5
smoothSolver:  Solving for Uz, Initial residual = 0.00198863, Final residual = 6.85311e-06, No Iterations 5
GAMG:  Solving for p, Initial residual = 0.00257807, Final residual = 7.46899e-05, No Iterations 2
time step continuity errors : sum local = 0.138453, global = -0.00131843, cumulative = 0.186129
ExecutionTime = 7.35 s  ClockTime = 27 s

Time = 103

smoothSolver:  Solving for Ux, Initial residual = 0.00194056, Final residual = 6.50805e-06, No Iterations 5
smoothSolver:  Solving for Uy, Initial residual = 0.00232959, Final residual = 7.6513e-06, No Iterations 5
smoothSolver:  Solving for Uz, Initial residual = 0.00197029, Final residual = 6.83255e-06, No Iterations 5
GAMG:  Solving for p, Initial residual = 0.00257113, Final residual = 7.82126e-05, No Iterations 2
time step continuity errors : sum local = 0.144982, global = -0.00110183, cumulative = 0.185028
ExecutionTime = 7.41 s  ClockTime = 28 s

Time = 104

smoothSolver:  Solving for Ux, Initial residual = 0.00192513, Final residual = 6.44729e-06, No Iterations 5
smoothSolver:  Solving for Uy, Initial residual = 0.00231646, Final residual = 7.59674e-06, No Iterations 5
smoothSolver:  Solving for Uz, Initial residual = 0.00195697, Final residual = 6.80315e-06, No Iterations 5
GAMG:  Solving for p, Initial residual = 0.00256239, Final residual = 7.30189e-05, No Iterations 2
time step continuity errors : sum local = 0.135676, global = -0.00114206, cumulative = 0.183885
ExecutionTime = 7.46 s  ClockTime = 28 s

Time = 105

smoothSolver:  Solving for Ux, Initial residual = 0.00190587, Final residual = 6.38819e-06, No Iterations 5
smoothSolver:  Solving for Uy, Initial residual = 0.00229748, Final residual = 7.5512e-06, No Iterations 5
smoothSolver:  Solving for Uz, Initial residual = 0.00193977, Final residual = 6.76679e-06, No Iterations 5
GAMG:  Solving for p, Initial residual = 0.00256134, Final residual = 7.80283e-05, No Iterations 2
time step continuity errors : sum local = 0.145007, global = -0.000983746, cumulative = 0.182902
ExecutionTime = 7.51 s  ClockTime = 28 s

Time = 106

smoothSolver:  Solving for Ux, Initial residual = 0.0018917, Final residual = 6.3217e-06, No Iterations 5
smoothSolver:  Solving for Uy, Initial residual = 0.00228531, Final residual = 7.50031e-06, No Iterations 5
smoothSolver:  Solving for Uz, Initial residual = 0.00192703, Final residual = 6.71045e-06, No Iterations 5
GAMG:  Solving for p, Initial residual = 0.00255606, Final residual = 7.33244e-05, No Iterations 2
time step continuity errors : sum local = 0.136588, global = -0.00108727, cumulative = 0.181814
ExecutionTime = 7.56 s  ClockTime = 28 s

Time = 107

smoothSolver:  Solving for Ux, Initial residual = 0.00187295, Final residual = 6.25746e-06, No Iterations 5
smoothSolver:  Solving for Uy, Initial residual = 0.00226714, Final residual = 7.45026e-06, No Iterations 5
smoothSolver:  Solving for Uz, Initial residual = 0.00190965, Final residual = 6.66529e-06, No Iterations 5
GAMG:  Solving for p, Initial residual = 0.00255651, Final residual = 7.86828e-05, No Iterations 2
time step continuity errors : sum local = 0.146594, global = -0.00097287, cumulative = 0.180842
ExecutionTime = 7.61 s  ClockTime = 29 s

Time = 108

smoothSolver:  Solving for Ux, Initial residual = 0.00185971, Final residual = 6.18645e-06, No Iterations 5
smoothSolver:  Solving for Uy, Initial residual = 0.00225553, Final residual = 7.39322e-06, No Iterations 5
smoothSolver:  Solving for Uz, Initial residual = 0.00189784, Final residual = 6.62692e-06, No Iterations 5
GAMG:  Solving for p, Initial residual = 0.00255216, Final residual = 7.37059e-05, No Iterations 2
time step continuity errors : sum local = 0.137643, global = -0.00118692, cumulative = 0.179655
ExecutionTime = 7.66 s  ClockTime = 29 s

Time = 109

smoothSolver:  Solving for Ux, Initial residual = 0.00184253, Final residual = 6.13486e-06, No Iterations 5
smoothSolver:  Solving for Uy, Initial residual = 0.00223818, Final residual = 7.35414e-06, No Iterations 5
smoothSolver:  Solving for Uz, Initial residual = 0.00188183, Final residual = 6.60148e-06, No Iterations 5
GAMG:  Solving for p, Initial residual = 0.00255848, Final residual = 7.95754e-05, No Iterations 2
time step continuity errors : sum local = 0.148646, global = -0.00110829, cumulative = 0.178546
ExecutionTime = 7.71 s  ClockTime = 29 s

Time = 110

smoothSolver:  Solving for Ux, Initial residual = 0.00183076, Final residual = 6.08096e-06, No Iterations 5
smoothSolver:  Solving for Uy, Initial residual = 0.0022268, Final residual = 7.32696e-06, No Iterations 5
smoothSolver:  Solving for Uz, Initial residual = 0.00187022, Final residual = 6.53651e-06, No Iterations 5
GAMG:  Solving for p, Initial residual = 0.00254743, Final residual = 7.42879e-05, No Iterations 2
time step continuity errors : sum local = 0.139111, global = -0.00128122, cumulative = 0.177265
ExecutionTime = 7.76 s  ClockTime = 29 s

Time = 111

smoothSolver:  Solving for Ux, Initial residual = 0.00181242, Final residual = 6.03389e-06, No Iterations 5
smoothSolver:  Solving for Uy, Initial residual = 0.00220739, Final residual = 7.29444e-06, No Iterations 5
smoothSolver:  Solving for Uz, Initial residual = 0.00185356, Final residual = 6.45882e-06, No Iterations 5
GAMG:  Solving for p, Initial residual = 0.00253281, Final residual = 8.02927e-05, No Iterations 2
time step continuity errors : sum local = 0.150341, global = -0.00117353, cumulative = 0.176092
ExecutionTime = 7.82 s  ClockTime = 29 s

Time = 112

smoothSolver:  Solving for Ux, Initial residual = 0.00180003, Final residual = 5.98586e-06, No Iterations 5
smoothSolver:  Solving for Uy, Initial residual = 0.00219581, Final residual = 7.26224e-06, No Iterations 5
smoothSolver:  Solving for Uz, Initial residual = 0.0018419, Final residual = 6.4128e-06, No Iterations 5
GAMG:  Solving for p, Initial residual = 0.00251744, Final residual = 7.24751e-05, No Iterations 2
time step continuity errors : sum local = 0.136043, global = -0.0012877, cumulative = 0.174804
ExecutionTime = 7.87 s  ClockTime = 30 s

Time = 113

smoothSolver:  Solving for Ux, Initial residual = 0.00178284, Final residual = 5.95067e-06, No Iterations 5
smoothSolver:  Solving for Uy, Initial residual = 0.00217689, Final residual = 7.23731e-06, No Iterations 5
smoothSolver:  Solving for Uz, Initial residual = 0.00182662, Final residual = 6.40041e-06, No Iterations 5
GAMG:  Solving for p, Initial residual = 0.00251078, Final residual = 7.82765e-05, No Iterations 2
time step continuity errors : sum local = 0.146943, global = -0.00110381, cumulative = 0.1737
ExecutionTime = 7.92 s  ClockTime = 30 s

Time = 114

smoothSolver:  Solving for Ux, Initial residual = 0.00177197, Final residual = 5.91039e-06, No Iterations 5
smoothSolver:  Solving for Uy, Initial residual = 0.00216601, Final residual = 7.21404e-06, No Iterations 5
smoothSolver:  Solving for Uz, Initial residual = 0.00181651, Final residual = 6.39875e-06, No Iterations 5
GAMG:  Solving for p, Initial residual = 0.00250325, Final residual = 7.42946e-05, No Iterations 2
time step continuity errors : sum local = 0.139867, global = -0.000971759, cumulative = 0.172728
ExecutionTime = 7.99 s  ClockTime = 30 s

Time = 115

smoothSolver:  Solving for Ux, Initial residual = 0.00175674, Final residual = 5.87767e-06, No Iterations 5
smoothSolver:  Solving for Uy, Initial residual = 0.00215056, Final residual = 7.20533e-06, No Iterations 5
smoothSolver:  Solving for Uz, Initial residual = 0.00180354, Final residual = 6.39535e-06, No Iterations 5
GAMG:  Solving for p, Initial residual = 0.00248928, Final residual = 7.27739e-05, No Iterations 2
time step continuity errors : sum local = 0.13728, global = -0.00100469, cumulative = 0.171724
ExecutionTime = 8.06 s  ClockTime = 30 s

Time = 116

smoothSolver:  Solving for Ux, Initial residual = 0.00174194, Final residual = 5.85224e-06, No Iterations 5
smoothSolver:  Solving for Uy, Initial residual = 0.00213565, Final residual = 7.20775e-06, No Iterations 5
smoothSolver:  Solving for Uz, Initial residual = 0.00179089, Final residual = 6.3791e-06, No Iterations 5
GAMG:  Solving for p, Initial residual = 0.00247962, Final residual = 7.30388e-05, No Iterations 2
time step continuity errors : sum local = 0.137791, global = -0.00110191, cumulative = 0.170622
ExecutionTime = 8.12 s  ClockTime = 30 s

Time = 117

smoothSolver:  Solving for Ux, Initial residual = 0.00172843, Final residual = 5.82097e-06, No Iterations 5
smoothSolver:  Solving for Uy, Initial residual = 0.00212163, Final residual = 7.20451e-06, No Iterations 5
smoothSolver:  Solving for Uz, Initial residual = 0.00177819, Final residual = 6.33997e-06, No Iterations 5
GAMG:  Solving for p, Initial residual = 0.00246659, Final residual = 7.50598e-05, No Iterations 2
time step continuity errors : sum local = 0.141601, global = -0.00102083, cumulative = 0.169601
ExecutionTime = 8.17 s  ClockTime = 31 s

Time = 118

smoothSolver:  Solving for Ux, Initial residual = 0.00171679, Final residual = 5.78411e-06, No Iterations 5
smoothSolver:  Solving for Uy, Initial residual = 0.00210939, Final residual = 7.16852e-06, No Iterations 5
smoothSolver:  Solving for Uz, Initial residual = 0.00176658, Final residual = 6.28442e-06, No Iterations 5
GAMG:  Solving for p, Initial residual = 0.00244844, Final residual = 7.14823e-05, No Iterations 2
time step continuity errors : sum local = 0.135135, global = -0.00114381, cumulative = 0.168457
ExecutionTime = 8.23 s  ClockTime = 31 s

Time = 119

smoothSolver:  Solving for Ux, Initial residual = 0.001702, Final residual = 5.75124e-06, No Iterations 5
smoothSolver:  Solving for Uy, Initial residual = 0.00209157, Final residual = 7.1299e-06, No Iterations 5
smoothSolver:  Solving for Uz, Initial residual = 0.00175232, Final residual = 6.24143e-06, No Iterations 5
GAMG:  Solving for p, Initial residual = 0.00243934, Final residual = 7.41742e-05, No Iterations 2
time step continuity errors : sum local = 0.14022, global = -0.00109605, cumulative = 0.167361
ExecutionTime = 8.27 s  ClockTime = 31 s

Time = 120

smoothSolver:  Solving for Ux, Initial residual = 0.00169218, Final residual = 5.72983e-06, No Iterations 5
smoothSolver:  Solving for Uy, Initial residual = 0.00207943, Final residual = 7.09698e-06, No Iterations 5
smoothSolver:  Solving for Uz, Initial residual = 0.00174211, Final residual = 6.20636e-06, No Iterations 5
GAMG:  Solving for p, Initial residual = 0.00242624, Final residual = 6.90246e-05, No Iterations 2
time step continuity errors : sum local = 0.130767, global = -0.00119498, cumulative = 0.166166
ExecutionTime = 8.32 s  ClockTime = 31 s

Time = 121

smoothSolver:  Solving for Ux, Initial residual = 0.00167808, Final residual = 5.69395e-06, No Iterations 5
smoothSolver:  Solving for Uy, Initial residual = 0.00206336, Final residual = 7.06573e-06, No Iterations 5
smoothSolver:  Solving for Uz, Initial residual = 0.00172985, Final residual = 6.14941e-06, No Iterations 5
GAMG:  Solving for p, Initial residual = 0.00241976, Final residual = 7.21078e-05, No Iterations 2
time step continuity errors : sum local = 0.136574, global = -0.0011228, cumulative = 0.165043
ExecutionTime = 8.38 s  ClockTime = 31 s

Time = 122

smoothSolver:  Solving for Ux, Initial residual = 0.00166736, Final residual = 5.65263e-06, No Iterations 5
smoothSolver:  Solving for Uy, Initial residual = 0.00205358, Final residual = 7.02851e-06, No Iterations 5
smoothSolver:  Solving for Uz, Initial residual = 0.00172085, Final residual = 6.07326e-06, No Iterations 5
GAMG:  Solving for p, Initial residual = 0.00240478, Final residual = 6.73563e-05, No Iterations 2
time step continuity errors : sum local = 0.127808, global = -0.00127989, cumulative = 0.163763
ExecutionTime = 8.43 s  ClockTime = 32 s

Time = 123

smoothSolver:  Solving for Ux, Initial residual = 0.00165308, Final residual = 5.6172e-06, No Iterations 5
smoothSolver:  Solving for Uy, Initial residual = 0.00203867, Final residual = 7.00193e-06, No Iterations 5
smoothSolver:  Solving for Uz, Initial residual = 0.00170901, Final residual = 6.01945e-06, No Iterations 5
GAMG:  Solving for p, Initial residual = 0.00240336, Final residual = 6.85055e-05, No Iterations 2
time step continuity errors : sum local = 0.129984, global = -0.00141272, cumulative = 0.162351
ExecutionTime = 8.48 s  ClockTime = 32 s

Time = 124

smoothSolver:  Solving for Ux, Initial residual = 0.00164239, Final residual = 5.58289e-06, No Iterations 5
smoothSolver:  Solving for Uy, Initial residual = 0.002027, Final residual = 6.99257e-06, No Iterations 5
smoothSolver:  Solving for Uz, Initial residual = 0.00169931, Final residual = 5.98492e-06, No Iterations 5
GAMG:  Solving for p, Initial residual = 0.00240116, Final residual = 7.52626e-05, No Iterations 2
time step continuity errors : sum local = 0.142828, global = -0.0013919, cumulative = 0.160959
ExecutionTime = 8.53 s  ClockTime = 32 s

Time = 125

smoothSolver:  Solving for Ux, Initial residual = 0.00163475, Final residual = 5.54663e-06, No Iterations 5
smoothSolver:  Solving for Uy, Initial residual = 0.00201859, Final residual = 6.97658e-06, No Iterations 5
smoothSolver:  Solving for Uz, Initial residual = 0.00169168, Final residual = 5.94402e-06, No Iterations 5
GAMG:  Solving for p, Initial residual = 0.00239046, Final residual = 7.17905e-05, No Iterations 2
time step continuity errors : sum local = 0.136637, global = -0.00135991, cumulative = 0.159599
ExecutionTime = 8.59 s  ClockTime = 32 s

Time = 126

smoothSolver:  Solving for Ux, Initial residual = 0.001623, Final residual = 5.51137e-06, No Iterations 5
smoothSolver:  Solving for Uy, Initial residual = 0.0020049, Final residual = 6.92969e-06, No Iterations 5
smoothSolver:  Solving for Uz, Initial residual = 0.00168064, Final residual = 5.88668e-06, No Iterations 5
GAMG:  Solving for p, Initial residual = 0.00237646, Final residual = 6.96428e-05, No Iterations 2
time step continuity errors : sum local = 0.132754, global = -0.00145252, cumulative = 0.158146
ExecutionTime = 8.64 s  ClockTime = 32 s

Time = 127

smoothSolver:  Solving for Ux, Initial residual = 0.0016102, Final residual = 5.48278e-06, No Iterations 5
smoothSolver:  Solving for Uy, Initial residual = 0.00199133, Final residual = 6.91116e-06, No Iterations 5
smoothSolver:  Solving for Uz, Initial residual = 0.00166854, Final residual = 5.84893e-06, No Iterations 5
GAMG:  Solving for p, Initial residual = 0.00236286, Final residual = 6.98225e-05, No Iterations 2
time step continuity errors : sum local = 0.133023, global = -0.00157291, cumulative = 0.156573
ExecutionTime = 8.69 s  ClockTime = 33 s

Time = 128

smoothSolver:  Solving for Ux, Initial residual = 0.00159932, Final residual = 5.45384e-06, No Iterations 5
smoothSolver:  Solving for Uy, Initial residual = 0.00197979, Final residual = 6.89743e-06, No Iterations 5
smoothSolver:  Solving for Uz, Initial residual = 0.00165786, Final residual = 5.81673e-06, No Iterations 5
GAMG:  Solving for p, Initial residual = 0.00235621, Final residual = 6.95929e-05, No Iterations 2
time step continuity errors : sum local = 0.132582, global = -0.00175086, cumulative = 0.154823
ExecutionTime = 8.74 s  ClockTime = 33 s

Time = 129

smoothSolver:  Solving for Ux, Initial residual = 0.00158828, Final residual = 5.42195e-06, No Iterations 5
smoothSolver:  Solving for Uy, Initial residual = 0.00196733, Final residual = 6.87552e-06, No Iterations 5
smoothSolver:  Solving for Uz, Initial residual = 0.00164795, Final residual = 5.79945e-06, No Iterations 5
GAMG:  Solving for p, Initial residual = 0.00235948, Final residual = 7.72461e-05, No Iterations 2
time step continuity errors : sum local = 0.14721, global = -0.00176864, cumulative = 0.153054
ExecutionTime = 8.79 s  ClockTime = 33 s

Time = 130

smoothSolver:  Solving for Ux, Initial residual = 0.00158027, Final residual = 5.3798e-06, No Iterations 5
smoothSolver:  Solving for Uy, Initial residual = 0.00195998, Final residual = 6.87062e-06, No Iterations 5
smoothSolver:  Solving for Uz, Initial residual = 0.00164189, Final residual = 5.79702e-06, No Iterations 5
GAMG:  Solving for p, Initial residual = 0.00235012, Final residual = 7.18915e-05, No Iterations 2
time step continuity errors : sum local = 0.137315, global = -0.00197417, cumulative = 0.15108
ExecutionTime = 8.84 s  ClockTime = 33 s

Time = 131

smoothSolver:  Solving for Ux, Initial residual = 0.0015673, Final residual = 5.34679e-06, No Iterations 5
smoothSolver:  Solving for Uy, Initial residual = 0.00194399, Final residual = 6.81222e-06, No Iterations 5
smoothSolver:  Solving for Uz, Initial residual = 0.00162953, Final residual = 5.73925e-06, No Iterations 5
GAMG:  Solving for p, Initial residual = 0.00234347, Final residual = 7.28787e-05, No Iterations 2
time step continuity errors : sum local = 0.139185, global = -0.00219163, cumulative = 0.148888
ExecutionTime = 8.89 s  ClockTime = 33 s

Time = 132

smoothSolver:  Solving for Ux, Initial residual = 0.00155571, Final residual = 5.29497e-06, No Iterations 5
smoothSolver:  Solving for Uy, Initial residual = 0.00193193, Final residual = 6.74769e-06, No Iterations 5
smoothSolver:  Solving for Uz, Initial residual = 0.00161932, Final residual = 5.69013e-06, No Iterations 5
GAMG:  Solving for p, Initial residual = 0.00233137, Final residual = 7.48182e-05, No Iterations 2
time step continuity errors : sum local = 0.142751, global = -0.00247641, cumulative = 0.146412
ExecutionTime = 8.94 s  ClockTime = 34 s

Time = 133

smoothSolver:  Solving for Ux, Initial residual = 0.0015447, Final residual = 5.24929e-06, No Iterations 5
smoothSolver:  Solving for Uy, Initial residual = 0.00192167, Final residual = 6.71889e-06, No Iterations 5
smoothSolver:  Solving for Uz, Initial residual = 0.0016092, Final residual = 5.67171e-06, No Iterations 5
GAMG:  Solving for p, Initial residual = 0.00232003, Final residual = 7.59632e-05, No Iterations 2
time step continuity errors : sum local = 0.144824, global = -0.00285692, cumulative = 0.143555
ExecutionTime = 8.99 s  ClockTime = 34 s

Time = 134

smoothSolver:  Solving for Ux, Initial residual = 0.00153571, Final residual = 5.20645e-06, No Iterations 5
smoothSolver:  Solving for Uy, Initial residual = 0.00191284, Final residual = 6.68058e-06, No Iterations 5
smoothSolver:  Solving for Uz, Initial residual = 0.00160087, Final residual = 5.62179e-06, No Iterations 5
GAMG:  Solving for p, Initial residual = 0.00231633, Final residual = 8.66757e-05, No Iterations 2
time step continuity errors : sum local = 0.165212, global = -0.00280704, cumulative = 0.140748
ExecutionTime = 9.04 s  ClockTime = 34 s

Time = 135

smoothSolver:  Solving for Ux, Initial residual = 0.00153233, Final residual = 5.1683e-06, No Iterations 5
smoothSolver:  Solving for Uy, Initial residual = 0.00191265, Final residual = 6.63678e-06, No Iterations 5
smoothSolver:  Solving for Uz, Initial residual = 0.00159791, Final residual = 5.57877e-06, No Iterations 5
GAMG:  Solving for p, Initial residual = 0.00230265, Final residual = 7.42883e-05, No Iterations 2
time step continuity errors : sum local = 0.142129, global = -0.00305873, cumulative = 0.137689
ExecutionTime = 9.09 s  ClockTime = 34 s

Time = 136

smoothSolver:  Solving for Ux, Initial residual = 0.00151664, Final residual = 5.10943e-06, No Iterations 5
smoothSolver:  Solving for Uy, Initial residual = 0.00189398, Final residual = 6.60548e-06, No Iterations 5
[...]
time step continuity errors : sum local = 0.0705872, global = 0.000470309, cumulative = 0.0632196
ExecutionTime = 13.02 s  ClockTime = 49 s

Time = 206

smoothSolver:  Solving for Ux, Initial residual = 0.000944492, Final residual = 7.47002e-06, No Iterations 4
smoothSolver:  Solving for Uy, Initial residual = 0.00118806, Final residual = 9.31064e-06, No Iterations 4
smoothSolver:  Solving for Uz, Initial residual = 0.000928501, Final residual = 7.36151e-06, No Iterations 4
GAMG:  Solving for p, Initial residual = 0.00121805, Final residual = 3.68064e-05, No Iterations 2
time step continuity errors : sum local = 0.0690565, global = 0.000512413, cumulative = 0.063732
ExecutionTime = 13.09 s  ClockTime = 49 s

Time = 207

smoothSolver:  Solving for Ux, Initial residual = 0.000938824, Final residual = 7.43232e-06, No Iterations 4
smoothSolver:  Solving for Uy, Initial residual = 0.00117929, Final residual = 9.23917e-06, No Iterations 4
smoothSolver:  Solving for Uz, Initial residual = 0.000922256, Final residual = 7.30346e-06, No Iterations 4
GAMG:  Solving for p, Initial residual = 0.00120602, Final residual = 3.66911e-05, No Iterations 2
time step continuity errors : sum local = 0.0688137, global = 0.000563903, cumulative = 0.0642959
ExecutionTime = 13.14 s  ClockTime = 49 s

Time = 208

smoothSolver:  Solving for Ux, Initial residual = 0.000933734, Final residual = 7.3975e-06, No Iterations 4
smoothSolver:  Solving for Uy, Initial residual = 0.00117134, Final residual = 9.17332e-06, No Iterations 4
smoothSolver:  Solving for Uz, Initial residual = 0.00091665, Final residual = 7.25065e-06, No Iterations 4
GAMG:  Solving for p, Initial residual = 0.0011946, Final residual = 3.63702e-05, No Iterations 2
time step continuity errors : sum local = 0.0681872, global = 0.000625496, cumulative = 0.0649214
ExecutionTime = 13.21 s  ClockTime = 50 s

Time = 209

smoothSolver:  Solving for Ux, Initial residual = 0.000928442, Final residual = 7.36465e-06, No Iterations 4
smoothSolver:  Solving for Uy, Initial residual = 0.00116323, Final residual = 9.11115e-06, No Iterations 4
smoothSolver:  Solving for Uz, Initial residual = 0.000910896, Final residual = 7.20446e-06, No Iterations 4
GAMG:  Solving for p, Initial residual = 0.00118278, Final residual = 3.60769e-05, No Iterations 2
time step continuity errors : sum local = 0.0676132, global = 0.0006948, cumulative = 0.0656162
ExecutionTime = 13.27 s  ClockTime = 50 s

Time = 210

smoothSolver:  Solving for Ux, Initial residual = 0.000923166, Final residual = 7.3353e-06, No Iterations 4
smoothSolver:  Solving for Uy, Initial residual = 0.00115538, Final residual = 9.05548e-06, No Iterations 4
smoothSolver:  Solving for Uz, Initial residual = 0.000905457, Final residual = 7.16477e-06, No Iterations 4
GAMG:  Solving for p, Initial residual = 0.00117096, Final residual = 3.58329e-05, No Iterations 2
time step continuity errors : sum local = 0.0671342, global = 0.00076954, cumulative = 0.0663858
ExecutionTime = 13.32 s  ClockTime = 50 s

Time = 211

smoothSolver:  Solving for Ux, Initial residual = 0.000917996, Final residual = 7.30845e-06, No Iterations 4
smoothSolver:  Solving for Uy, Initial residual = 0.00114808, Final residual = 9.00512e-06, No Iterations 4
smoothSolver:  Solving for Uz, Initial residual = 0.000900058, Final residual = 7.12824e-06, No Iterations 4
GAMG:  Solving for p, Initial residual = 0.00115966, Final residual = 3.56242e-05, No Iterations 2
time step continuity errors : sum local = 0.066721, global = 0.000848583, cumulative = 0.0672343
ExecutionTime = 13.37 s  ClockTime = 50 s

Time = 212

smoothSolver:  Solving for Ux, Initial residual = 0.000912931, Final residual = 7.28643e-06, No Iterations 4
smoothSolver:  Solving for Uy, Initial residual = 0.0011411, Final residual = 8.95723e-06, No Iterations 4
smoothSolver:  Solving for Uz, Initial residual = 0.00089462, Final residual = 7.10231e-06, No Iterations 4
GAMG:  Solving for p, Initial residual = 0.0011487, Final residual = 3.54424e-05, No Iterations 2
time step continuity errors : sum local = 0.0663576, global = 0.00093129, cumulative = 0.0681656
ExecutionTime = 13.42 s  ClockTime = 50 s

Time = 213

smoothSolver:  Solving for Ux, Initial residual = 0.000907989, Final residual = 7.26723e-06, No Iterations 4
smoothSolver:  Solving for Uy, Initial residual = 0.00113436, Final residual = 8.91655e-06, No Iterations 4
smoothSolver:  Solving for Uz, Initial residual = 0.000889017, Final residual = 7.07524e-06, No Iterations 4
GAMG:  Solving for p, Initial residual = 0.00113804, Final residual = 3.52569e-05, No Iterations 2
time step continuity errors : sum local = 0.0659886, global = 0.00101579, cumulative = 0.0691814
ExecutionTime = 13.46 s  ClockTime = 51 s

Time = 214

smoothSolver:  Solving for Ux, Initial residual = 0.000903204, Final residual = 7.24745e-06, No Iterations 4
smoothSolver:  Solving for Uy, Initial residual = 0.00112797, Final residual = 8.87611e-06, No Iterations 4
smoothSolver:  Solving for Uz, Initial residual = 0.000883399, Final residual = 7.04363e-06, No Iterations 4
GAMG:  Solving for p, Initial residual = 0.00112778, Final residual = 3.51346e-05, No Iterations 2
time step continuity errors : sum local = 0.0657396, global = 0.00110924, cumulative = 0.0702907
ExecutionTime = 13.52 s  ClockTime = 51 s

Time = 215

smoothSolver:  Solving for Ux, Initial residual = 0.000898676, Final residual = 7.22535e-06, No Iterations 4
smoothSolver:  Solving for Uy, Initial residual = 0.00112184, Final residual = 8.83735e-06, No Iterations 4
smoothSolver:  Solving for Uz, Initial residual = 0.000877791, Final residual = 7.00694e-06, No Iterations 4
GAMG:  Solving for p, Initial residual = 0.00111818, Final residual = 3.51858e-05, No Iterations 2
time step continuity errors : sum local = 0.0658161, global = 0.00122785, cumulative = 0.0715185
ExecutionTime = 13.57 s  ClockTime = 51 s

Time = 216

smoothSolver:  Solving for Ux, Initial residual = 0.000894368, Final residual = 7.20303e-06, No Iterations 4
smoothSolver:  Solving for Uy, Initial residual = 0.00111593, Final residual = 8.79993e-06, No Iterations 4
smoothSolver:  Solving for Uz, Initial residual = 0.000872347, Final residual = 6.96873e-06, No Iterations 4
GAMG:  Solving for p, Initial residual = 0.00110967, Final residual = 3.55944e-05, No Iterations 2
time step continuity errors : sum local = 0.0665597, global = 0.00117825, cumulative = 0.0726968
ExecutionTime = 13.6 s  ClockTime = 51 s

Time = 217

smoothSolver:  Solving for Ux, Initial residual = 0.000890505, Final residual = 7.17855e-06, No Iterations 4
smoothSolver:  Solving for Uy, Initial residual = 0.00111066, Final residual = 8.76539e-06, No Iterations 4
smoothSolver:  Solving for Uz, Initial residual = 0.000867294, Final residual = 6.92778e-06, No Iterations 4
GAMG:  Solving for p, Initial residual = 0.00110258, Final residual = 3.42238e-05, No Iterations 2
time step continuity errors : sum local = 0.0639286, global = 0.00122262, cumulative = 0.0739194
ExecutionTime = 13.66 s  ClockTime = 51 s

Time = 218

smoothSolver:  Solving for Ux, Initial residual = 0.000885383, Final residual = 7.15288e-06, No Iterations 4
smoothSolver:  Solving for Uy, Initial residual = 0.00110351, Final residual = 8.72683e-06, No Iterations 4
smoothSolver:  Solving for Uz, Initial residual = 0.0008608, Final residual = 6.8871e-06, No Iterations 4
GAMG:  Solving for p, Initial residual = 0.00109486, Final residual = 3.72678e-05, No Iterations 2
time step continuity errors : sum local = 0.0695948, global = 0.00118106, cumulative = 0.0751004
ExecutionTime = 13.72 s  ClockTime = 52 s

Time = 219

smoothSolver:  Solving for Ux, Initial residual = 0.000882614, Final residual = 7.12278e-06, No Iterations 4
smoothSolver:  Solving for Uy, Initial residual = 0.00110011, Final residual = 8.6925e-06, No Iterations 4
smoothSolver:  Solving for Uz, Initial residual = 0.000856804, Final residual = 6.84063e-06, No Iterations 4
GAMG:  Solving for p, Initial residual = 0.00108863, Final residual = 3.40164e-05, No Iterations 2
time step continuity errors : sum local = 0.0634586, global = 0.00119807, cumulative = 0.0762985
ExecutionTime = 13.79 s  ClockTime = 52 s

Time = 220

smoothSolver:  Solving for Ux, Initial residual = 0.000876859, Final residual = 7.09695e-06, No Iterations 4
smoothSolver:  Solving for Uy, Initial residual = 0.00109249, Final residual = 8.65833e-06, No Iterations 4
smoothSolver:  Solving for Uz, Initial residual = 0.000849699, Final residual = 6.79012e-06, No Iterations 4
GAMG:  Solving for p, Initial residual = 0.0010807, Final residual = 3.45787e-05, No Iterations 2
time step continuity errors : sum local = 0.0644894, global = 0.0012259, cumulative = 0.0775244
ExecutionTime = 13.85 s  ClockTime = 52 s

Time = 221

smoothSolver:  Solving for Ux, Initial residual = 0.0008734, Final residual = 7.07295e-06, No Iterations 4
smoothSolver:  Solving for Uy, Initial residual = 0.00108771, Final residual = 8.62544e-06, No Iterations 4
smoothSolver:  Solving for Uz, Initial residual = 0.000844468, Final residual = 6.7402e-06, No Iterations 4
GAMG:  Solving for p, Initial residual = 0.00107304, Final residual = 3.62299e-05, No Iterations 2
time step continuity errors : sum local = 0.0675492, global = 0.00123801, cumulative = 0.0787624
ExecutionTime = 13.91 s  ClockTime = 52 s

Time = 222

smoothSolver:  Solving for Ux, Initial residual = 0.000870302, Final residual = 7.04376e-06, No Iterations 4
smoothSolver:  Solving for Uy, Initial residual = 0.00108391, Final residual = 8.5904e-06, No Iterations 4
smoothSolver:  Solving for Uz, Initial residual = 0.000839572, Final residual = 6.69044e-06, No Iterations 4
GAMG:  Solving for p, Initial residual = 0.00106585, Final residual = 3.34565e-05, No Iterations 2
time step continuity errors : sum local = 0.0623229, global = 0.00128108, cumulative = 0.0800435
ExecutionTime = 13.96 s  ClockTime = 52 s

Time = 223

smoothSolver:  Solving for Ux, Initial residual = 0.000864948, Final residual = 7.0161e-06, No Iterations 4
smoothSolver:  Solving for Uy, Initial residual = 0.00107708, Final residual = 8.55213e-06, No Iterations 4
smoothSolver:  Solving for Uz, Initial residual = 0.000832631, Final residual = 6.64034e-06, No Iterations 4
GAMG:  Solving for p, Initial residual = 0.00105792, Final residual = 3.38971e-05, No Iterations 2
time step continuity errors : sum local = 0.0631272, global = 0.00133437, cumulative = 0.0813779
ExecutionTime = 14 s  ClockTime = 53 s

Time = 224

smoothSolver:  Solving for Ux, Initial residual = 0.000861495, Final residual = 6.98834e-06, No Iterations 4
smoothSolver:  Solving for Uy, Initial residual = 0.00107252, Final residual = 8.51477e-06, No Iterations 4
smoothSolver:  Solving for Uz, Initial residual = 0.000827244, Final residual = 6.58913e-06, No Iterations 4
GAMG:  Solving for p, Initial residual = 0.00104999, Final residual = 3.35588e-05, No Iterations 2
time step continuity errors : sum local = 0.0624828, global = 0.00138328, cumulative = 0.0827612
ExecutionTime = 14.04 s  ClockTime = 53 s

Time = 225

smoothSolver:  Solving for Ux, Initial residual = 0.000857664, Final residual = 6.95889e-06, No Iterations 4
smoothSolver:  Solving for Uy, Initial residual = 0.00106766, Final residual = 8.47319e-06, No Iterations 4
smoothSolver:  Solving for Uz, Initial residual = 0.000821448, Final residual = 6.53728e-06, No Iterations 4
GAMG:  Solving for p, Initial residual = 0.00104166, Final residual = 3.45747e-05, No Iterations 2
time step continuity errors : sum local = 0.0643602, global = 0.00122648, cumulative = 0.0839876
ExecutionTime = 14.09 s  ClockTime = 53 s

Time = 226

smoothSolver:  Solving for Ux, Initial residual = 0.000854506, Final residual = 6.92542e-06, No Iterations 4
smoothSolver:  Solving for Uy, Initial residual = 0.00106365, Final residual = 8.42812e-06, No Iterations 4
smoothSolver:  Solving for Uz, Initial residual = 0.000816516, Final residual = 6.48542e-06, No Iterations 4
GAMG:  Solving for p, Initial residual = 0.00103432, Final residual = 3.23994e-05, No Iterations 2
time step continuity errors : sum local = 0.0602367, global = 0.00123261, cumulative = 0.0852202
ExecutionTime = 14.15 s  ClockTime = 53 s

Time = 227

smoothSolver:  Solving for Ux, Initial residual = 0.000849726, Final residual = 6.89431e-06, No Iterations 4
smoothSolver:  Solving for Uy, Initial residual = 0.00105695, Final residual = 8.38041e-06, No Iterations 4
smoothSolver:  Solving for Uz, Initial residual = 0.000809935, Final residual = 6.43555e-06, No Iterations 4
GAMG:  Solving for p, Initial residual = 0.00102623, Final residual = 3.29213e-05, No Iterations 2
time step continuity errors : sum local = 0.0611967, global = 0.00121025, cumulative = 0.0864305
ExecutionTime = 14.22 s  ClockTime = 53 s

Time = 228

smoothSolver:  Solving for Ux, Initial residual = 0.000846877, Final residual = 6.86554e-06, No Iterations 4
smoothSolver:  Solving for Uy, Initial residual = 0.00105268, Final residual = 8.33664e-06, No Iterations 4
smoothSolver:  Solving for Uz, Initial residual = 0.000804886, Final residual = 6.3873e-06, No Iterations 4
GAMG:  Solving for p, Initial residual = 0.00101854, Final residual = 3.25677e-05, No Iterations 2
time step continuity errors : sum local = 0.0605297, global = 0.00119165, cumulative = 0.0876222
ExecutionTime = 14.29 s  ClockTime = 54 s

Time = 229

smoothSolver:  Solving for Ux, Initial residual = 0.000843569, Final residual = 6.83423e-06, No Iterations 4
smoothSolver:  Solving for Uy, Initial residual = 0.00104785, Final residual = 8.29537e-06, No Iterations 4
smoothSolver:  Solving for Uz, Initial residual = 0.000799381, Final residual = 6.3422e-06, No Iterations 4
GAMG:  Solving for p, Initial residual = 0.00101054, Final residual = 3.22347e-05, No Iterations 2
time step continuity errors : sum local = 0.0598987, global = 0.00118526, cumulative = 0.0888074
ExecutionTime = 14.35 s  ClockTime = 54 s

Time = 230

smoothSolver:  Solving for Ux, Initial residual = 0.000840144, Final residual = 6.80396e-06, No Iterations 4
smoothSolver:  Solving for Uy, Initial residual = 0.00104295, Final residual = 8.25508e-06, No Iterations 4
smoothSolver:  Solving for Uz, Initial residual = 0.000793852, Final residual = 6.29484e-06, No Iterations 4
GAMG:  Solving for p, Initial residual = 0.00100267, Final residual = 3.22714e-05, No Iterations 2
time step continuity errors : sum local = 0.0599569, global = 0.00121025, cumulative = 0.0900177
ExecutionTime = 14.39 s  ClockTime = 54 s

Time = 231

smoothSolver:  Solving for Ux, Initial residual = 0.000836874, Final residual = 6.77432e-06, No Iterations 4
smoothSolver:  Solving for Uy, Initial residual = 0.00103836, Final residual = 8.21376e-06, No Iterations 4
smoothSolver:  Solving for Uz, Initial residual = 0.000788452, Final residual = 6.24743e-06, No Iterations 4
GAMG:  Solving for p, Initial residual = 0.000995366, Final residual = 3.18775e-05, No Iterations 2
time step continuity errors : sum local = 0.0592126, global = 0.00125305, cumulative = 0.0912707
ExecutionTime = 14.45 s  ClockTime = 54 s

Time = 232

smoothSolver:  Solving for Ux, Initial residual = 0.000833234, Final residual = 6.74504e-06, No Iterations 4
smoothSolver:  Solving for Uy, Initial residual = 0.00103318, Final residual = 8.17364e-06, No Iterations 4
smoothSolver:  Solving for Uz, Initial residual = 0.000782722, Final residual = 6.19839e-06, No Iterations 4
GAMG:  Solving for p, Initial residual = 0.000988368, Final residual = 3.19522e-05, No Iterations 2
time step continuity errors : sum local = 0.0593408, global = 0.00130821, cumulative = 0.0925789
ExecutionTime = 14.5 s  ClockTime = 55 s

Time = 233

smoothSolver:  Solving for Ux, Initial residual = 0.00082996, Final residual = 6.71685e-06, No Iterations 4
smoothSolver:  Solving for Uy, Initial residual = 0.00102848, Final residual = 8.13152e-06, No Iterations 4
smoothSolver:  Solving for Uz, Initial residual = 0.000777019, Final residual = 6.1484e-06, No Iterations 4
GAMG:  Solving for p, Initial residual = 0.000981725, Final residual = 3.52152e-05, No Iterations 2
time step continuity errors : sum local = 0.0653889, global = 0.00119734, cumulative = 0.0937763
ExecutionTime = 14.55 s  ClockTime = 55 s

Time = 234

smoothSolver:  Solving for Ux, Initial residual = 0.000827926, Final residual = 6.68665e-06, No Iterations 4
smoothSolver:  Solving for Uy, Initial residual = 0.00102547, Final residual = 8.08696e-06, No Iterations 4
smoothSolver:  Solving for Uz, Initial residual = 0.000772776, Final residual = 6.09711e-06, No Iterations 4
GAMG:  Solving for p, Initial residual = 0.000976333, Final residual = 3.12657e-05, No Iterations 2
time step continuity errors : sum local = 0.0579848, global = 0.00128716, cumulative = 0.0950634
ExecutionTime = 14.61 s  ClockTime = 55 s

Time = 235

smoothSolver:  Solving for Ux, Initial residual = 0.000822504, Final residual = 6.66103e-06, No Iterations 4
smoothSolver:  Solving for Uy, Initial residual = 0.00101771, Final residual = 8.03655e-06, No Iterations 4
smoothSolver:  Solving for Uz, Initial residual = 0.000765241, Final residual = 6.04209e-06, No Iterations 4
GAMG:  Solving for p, Initial residual = 0.000969071, Final residual = 3.2067e-05, No Iterations 2
time step continuity errors : sum local = 0.0594645, global = 0.001325, cumulative = 0.0963884
ExecutionTime = 14.67 s  ClockTime = 55 s

Time = 236

smoothSolver:  Solving for Ux, Initial residual = 0.000819892, Final residual = 6.63531e-06, No Iterations 4
smoothSolver:  Solving for Uy, Initial residual = 0.00101323, Final residual = 7.98534e-06, No Iterations 4
smoothSolver:  Solving for Uz, Initial residual = 0.000759883, Final residual = 5.98749e-06, No Iterations 4
GAMG:  Solving for p, Initial residual = 0.000962604, Final residual = 3.17498e-05, No Iterations 2
time step continuity errors : sum local = 0.0588703, global = 0.0013473, cumulative = 0.0977357
ExecutionTime = 14.72 s  ClockTime = 55 s

Time = 237

smoothSolver:  Solving for Ux, Initial residual = 0.000816715, Final residual = 6.60925e-06, No Iterations 4
smoothSolver:  Solving for Uy, Initial residual = 0.00100821, Final residual = 7.93075e-06, No Iterations 4
smoothSolver:  Solving for Uz, Initial residual = 0.000754101, Final residual = 5.93389e-06, No Iterations 4
GAMG:  Solving for p, Initial residual = 0.000955804, Final residual = 3.18256e-05, No Iterations 2
time step continuity errors : sum local = 0.0590052, global = 0.00134406, cumulative = 0.0990798
ExecutionTime = 14.77 s  ClockTime = 56 s

Time = 238

smoothSolver:  Solving for Ux, Initial residual = 0.00081369, Final residual = 6.58237e-06, No Iterations 4
smoothSolver:  Solving for Uy, Initial residual = 0.00100316, Final residual = 7.87526e-06, No Iterations 4
smoothSolver:  Solving for Uz, Initial residual = 0.000748486, Final residual = 5.88142e-06, No Iterations 4
GAMG:  Solving for p, Initial residual = 0.000949465, Final residual = 3.10931e-05, No Iterations 2
time step continuity errors : sum local = 0.0576321, global = 0.00136016, cumulative = 0.10044
ExecutionTime = 14.82 s  ClockTime = 56 s

Time = 239

smoothSolver:  Solving for Ux, Initial residual = 0.0008102, Final residual = 6.55583e-06, No Iterations 4
smoothSolver:  Solving for Uy, Initial residual = 0.000997314, Final residual = 7.8194e-06, No Iterations 4
smoothSolver:  Solving for Uz, Initial residual = 0.000742324, Final residual = 5.83355e-06, No Iterations 4
GAMG:  Solving for p, Initial residual = 0.000942624, Final residual = 3.10786e-05, No Iterations 2
time step continuity errors : sum local = 0.0575979, global = 0.00135159, cumulative = 0.101792
ExecutionTime = 14.87 s  ClockTime = 56 s


SIMPLE solution converged in 239 iterations

wallShearStress wallShearStress write:
    writing field wallShearStress
    min/max(WALL) = (-0.0643068 -0.100169 -0.05822), (0.0858794 0.0193019 0.152135)
End

Finalising parallel run
